<?xml version="1.0" encoding="UTF-8"?>
<routes>
    <vType id="car" accel="2.6" decel="4.5" sigma="0.5" length="5" minGap="2.5" maxSpeed="15"/>
    <route id="route_0" edges="1"/>
    <vehicle id="veh0" type="car" route="route_0" depart="0"/>
    <vehicle id="veh1" type="car" route="route_0" depart="2"/>
    <vehicle id="veh2" type="car" route="route_0" depart="4"/>
</routes>
