<?xml version="1.0" encoding="UTF-8"?>

<!-- generated on 2024-11-05 18:43:49.162158 by osmWebWizard.py v1_21_0+0000-d7b3b481c43
<configuration>
    <net-file value="C:\Windows\system32\2024-11-05-18-42-37\osm.net.xml.gz"/>
    <output-trip-file value="C:\Windows\system32\2024-11-05-18-42-37\osm.bus.trips.xml"/>
    <route-file value="C:\Windows\system32\2024-11-05-18-42-37\osm.bus.rou.xml"/>
    <prefix value="bus"/>
    <trip-attributes value="departLane=&quot;best&quot;"/>
    <fringe-start-attributes value="departSpeed=&quot;max&quot;"/>
    <vehicle-class value="bus"/>
    <fringe-factor value="3"/>
    <vclass value="bus"/>
    <via-edge-types value="highway.motorway,highway.motorway_link,highway.trunk_link,highway.primary_link,highway.secondary_link,highway.tertiary_link"/>
    <min-distance value="600.0"/>
    <min-distance.fringe value="10.0"/>
    <remove-loops value="True"/>
    <validate value="True"/>
    <insertion-density value="8.0"/>
</configuration>
-->

<!-- generated on 2024-11-05 18:43:48 by Eclipse SUMO duarouter Version 1.21.0
<duarouterConfiguration xmlns:xsi="http://www.w3.org/2001/XMLSchema-instance" xsi:noNamespaceSchemaLocation="http://sumo.dlr.de/xsd/duarouterConfiguration.xsd">

    <input>
        <net-file value="C:\Windows\system32\2024-11-05-18-42-37\osm.net.xml.gz"/>
        <route-files value="C:\Windows\system32\2024-11-05-18-42-37\osm.bus.trips.xml"/>
    </input>

    <output>
        <output-file value="C:\Windows\system32\2024-11-05-18-42-37\osm.bus.trips.xml.tmp"/>
        <alternatives-output value="NUL"/>
        <write-trips value="true"/>
    </output>

    <processing>
        <remove-loops value="true"/>
    </processing>

    <time>
        <begin value="0.0"/>
        <end value="3600.0"/>
    </time>

    <report>
        <no-warnings value="true"/>
        <ignore-errors value="true"/>
        <no-step-log value="true"/>
    </report>

</duarouterConfiguration>
-->

<routes xmlns:xsi="http://www.w3.org/2001/XMLSchema-instance" xsi:noNamespaceSchemaLocation="http://sumo.dlr.de/xsd/routes_file.xsd">
    <vType id="bus_bus" vClass="bus"/>
    <trip id="bus0" type="bus_bus" depart="0.00" departLane="best" from="825494585#1" to="-242633873#0"/>
    <trip id="bus1" type="bus_bus" depart="3.95" departLane="best" departSpeed="max" from="1228698551" to="1185620974#1"/>
    <trip id="bus2" type="bus_bus" depart="7.89" departLane="best" from="8641806#3" to="8639568#1"/>
    <trip id="bus3" type="bus_bus" depart="11.84" departLane="best" from="8650048#4" to="-825494585#2"/>
    <trip id="bus4" type="bus_bus" depart="15.79" departLane="best" from="420495585#0" to="-289654498"/>
    <trip id="bus5" type="bus_bus" depart="19.73" departLane="best" departSpeed="max" from="-138827709" to="1098934121#0"/>
    <trip id="bus6" type="bus_bus" depart="23.68" departLane="best" departSpeed="max" from="828869387#0" to="747090064#1"/>
    <trip id="bus8" type="bus_bus" depart="31.57" departLane="best" from="8647038#2" to="8640571#1"/>
    <trip id="bus9" type="bus_bus" depart="35.52" departLane="best" from="242632754#0" to="8865420#4"/>
    <trip id="bus10" type="bus_bus" depart="39.47" departLane="best" from="8865426#3" to="289631068#3"/>
    <trip id="bus11" type="bus_bus" depart="43.41" departLane="best" departSpeed="max" from="-825494574#1" to="844528872#0"/>
    <trip id="bus13" type="bus_bus" depart="51.31" departLane="best" from="8647039#0" to="8643916#1"/>
    <trip id="bus14" type="bus_bus" depart="55.25" departLane="best" from="-103680391#1" to="89691955#0"/>
    <trip id="bus15" type="bus_bus" depart="59.20" departLane="best" departSpeed="max" from="292809511#0" to="749812082#1"/>
    <trip id="bus16" type="bus_bus" depart="63.15" departLane="best" from="8647456#15" to="825998783#0"/>
    <trip id="bus17" type="bus_bus" depart="67.10" departLane="best" from="8648507#4" to="816366950#1"/>
    <trip id="bus18" type="bus_bus" depart="71.04" departLane="best" from="1089085522" to="206541037#0"/>
    <trip id="bus19" type="bus_bus" depart="74.99" departLane="best" from="-749812082#1" to="1198318807#0"/>
    <trip id="bus20" type="bus_bus" depart="78.94" departLane="best" from="830619438#3" to="173473723#1"/>
    <trip id="bus21" type="bus_bus" depart="82.88" departLane="best" from="825263839#1" to="380662075#0"/>
    <trip id="bus22" type="bus_bus" depart="86.83" departLane="best" from="289638711#0" to="1120509015#1"/>
    <trip id="bus23" type="bus_bus" depart="90.78" departLane="best" from="1188194571#1" to="8651845#0"/>
    <trip id="bus24" type="bus_bus" depart="94.72" departLane="best" from="826634235" to="825263841"/>
    <trip id="bus25" type="bus_bus" depart="98.67" departLane="best" departSpeed="max" from="-8647494#1" to="405884718#1"/>
    <trip id="bus26" type="bus_bus" depart="102.62" departLane="best" departSpeed="max" from="943443719" to="85890979"/>
    <trip id="bus27" type="bus_bus" depart="106.56" departLane="best" from="591908557#3" to="8639962#5"/>
    <trip id="bus28" type="bus_bus" depart="110.51" departLane="best" from="1089092083" to="292807009#1"/>
    <trip id="bus29" type="bus_bus" depart="114.46" departLane="best" from="173473723#3" to="138827726#1"/>
    <trip id="bus30" type="bus_bus" depart="118.40" departLane="best" departSpeed="max" from="1031513328" to="8652409#0"/>
    <trip id="bus31" type="bus_bus" depart="122.35" departLane="best" from="830619438#3" to="426456625#2"/>
    <trip id="bus32" type="bus_bus" depart="126.30" departLane="best" from="8651153#1" to="485292838#7"/>
    <trip id="bus33" type="bus_bus" depart="130.24" departLane="best" from="1188182970#0" to="1312615597#2"/>
    <trip id="bus34" type="bus_bus" depart="134.19" departLane="best" from="380662070#2" to="1154673770#1"/>
    <trip id="bus36" type="bus_bus" depart="142.08" departLane="best" from="825494585#7" to="426489346#2"/>
    <trip id="bus37" type="bus_bus" depart="146.03" departLane="best" from="485292838#2" to="420495585#0"/>
    <trip id="bus38" type="bus_bus" depart="149.98" departLane="best" from="89641252#3" to="8648588#1"/>
    <trip id="bus39" type="bus_bus" depart="153.92" departLane="best" from="-1212692908#0" to="8642454#0"/>
    <trip id="bus40" type="bus_bus" depart="157.87" departLane="best" from="8638014#2" to="653924644#2"/>
    <trip id="bus41" type="bus_bus" depart="161.82" departLane="best" from="1188182972#1" to="85890998#1"/>
    <trip id="bus42" type="bus_bus" depart="165.76" departLane="best" from="862549735#0" to="426497580#1"/>
    <trip id="bus43" type="bus_bus" depart="169.71" departLane="best" from="426488940#4" to="8865425#1"/>
    <trip id="bus44" type="bus_bus" depart="173.66" departLane="best" from="8649056#1" to="138827688#1"/>
    <trip id="bus45" type="bus_bus" depart="177.61" departLane="best" from="8651073#1" to="8649056#4"/>
    <trip id="bus46" type="bus_bus" depart="181.55" departLane="best" from="138827669#2" to="856200767#1"/>
    <trip id="bus47" type="bus_bus" depart="185.50" departLane="best" from="816366950#0" to="-8651870#2"/>
    <trip id="bus49" type="bus_bus" depart="193.39" departLane="best" from="-1312615598#0" to="8651504#2"/>
    <trip id="bus50" type="bus_bus" depart="197.34" departLane="best" from="140095575#1" to="1212692908#2"/>
    <trip id="bus51" type="bus_bus" depart="201.29" departLane="best" from="8650048#1" to="8652451#1"/>
    <trip id="bus52" type="bus_bus" depart="205.23" departLane="best" departSpeed="max" from="-798341511#6" to="-570185090#0"/>
    <trip id="bus53" type="bus_bus" depart="209.18" departLane="best" from="8645388#2" to="8646223#5"/>
    <trip id="bus54" type="bus_bus" depart="213.13" departLane="best" from="426497571#0" to="747090068#3"/>
    <trip id="bus55" type="bus_bus" depart="217.07" departLane="best" from="1188182970#1" to="8649056#9"/>
    <trip id="bus56" type="bus_bus" depart="221.02" departLane="best" from="420495586#1" to="1121209369"/>
    <trip id="bus57" type="bus_bus" depart="224.97" departLane="best" from="591217298#1" to="8643916#1"/>
    <trip id="bus58" type="bus_bus" depart="228.91" departLane="best" from="1000832623#0" to="244444287"/>
    <trip id="bus59" type="bus_bus" depart="232.86" departLane="best" from="970425331" to="8637586#1"/>
    <trip id="bus60" type="bus_bus" depart="236.81" departLane="best" from="426456649#0" to="591677201#1"/>
    <trip id="bus61" type="bus_bus" depart="240.75" departLane="best" departSpeed="max" from="-8639568#1" to="1188182968"/>
    <trip id="bus62" type="bus_bus" depart="244.70" departLane="best" from="1089126780#0" to="1154673772#0"/>
    <trip id="bus63" type="bus_bus" depart="248.65" departLane="best" from="-533466405" to="840928388#0"/>
    <trip id="bus64" type="bus_bus" depart="252.59" departLane="best" from="8648451#1" to="-591235970#0"/>
    <trip id="bus65" type="bus_bus" depart="256.54" departLane="best" from="1098934122#0" to="8639327#0"/>
    <trip id="bus66" type="bus_bus" depart="260.49" departLane="best" from="103553906#1" to="-8646460#1"/>
    <trip id="bus68" type="bus_bus" depart="268.38" departLane="best" from="8647039#0" to="1089092083"/>
    <trip id="bus69" type="bus_bus" depart="272.33" departLane="best" from="-825494585#3" to="-426497569#1"/>
    <trip id="bus71" type="bus_bus" depart="280.22" departLane="best" from="8641175#1" to="8639350#7"/>
    <trip id="bus72" type="bus_bus" depart="284.17" departLane="best" departSpeed="max" from="932735298" to="-85310729#0"/>
    <trip id="bus73" type="bus_bus" depart="288.12" departLane="best" from="380662074#2" to="290048940#1"/>
    <trip id="bus74" type="bus_bus" depart="292.06" departLane="best" from="8648507#4" to="1312615599#0"/>
    <trip id="bus75" type="bus_bus" depart="296.01" departLane="best" from="420495585#0" to="173473723#1"/>
    <trip id="bus77" type="bus_bus" depart="303.90" departLane="best" from="993825359#2" to="8647872#0"/>
    <trip id="bus78" type="bus_bus" depart="307.85" departLane="best" from="8648049#0" to="1000832623#0"/>
    <trip id="bus79" type="bus_bus" depart="311.80" departLane="best" from="485269334#0" to="1121981969#1"/>
    <trip id="bus80" type="bus_bus" depart="315.74" departLane="best" from="380662073#1" to="427635744#1"/>
    <trip id="bus81" type="bus_bus" depart="319.69" departLane="best" departSpeed="max" from="292809511#0" to="943142505#1"/>
    <trip id="bus82" type="bus_bus" depart="323.64" departLane="best" from="1188182970#1" to="8646607#5"/>
    <trip id="bus83" type="bus_bus" depart="327.58" departLane="best" departSpeed="max" from="-8646916#1" to="242536052#4"/>
    <trip id="bus84" type="bus_bus" depart="331.53" departLane="best" from="591217320#2" to="8645216#4"/>
    <trip id="bus85" type="bus_bus" depart="335.48" departLane="best" from="426492390#1" to="818642780"/>
    <trip id="bus86" type="bus_bus" depart="339.42" departLane="best" from="48982055#0" to="8648229#2"/>
    <trip id="bus87" type="bus_bus" depart="343.37" departLane="best" from="-8647152#4" to="8865426#8"/>
    <trip id="bus88" type="bus_bus" depart="347.32" departLane="best" departSpeed="max" from="-749812082#2" to="1089085520#0"/>
    <trip id="bus90" type="bus_bus" depart="355.21" departLane="best" from="1096242208#1" to="-8642454#0"/>
    <trip id="bus91" type="bus_bus" depart="359.16" departLane="best" from="8649630#9" to="-1312615596"/>
    <trip id="bus92" type="bus_bus" depart="363.10" departLane="best" departSpeed="max" from="404955582#0" to="818642780"/>
    <trip id="bus93" type="bus_bus" depart="367.05" departLane="best" from="-573357374#4" to="242632754#0"/>
    <trip id="bus94" type="bus_bus" depart="371.00" departLane="best" from="1098934122#1" to="426456630#1"/>
    <trip id="bus95" type="bus_bus" depart="374.94" departLane="best" from="-862549735#1" to="8639923#2"/>
    <trip id="bus96" type="bus_bus" depart="378.89" departLane="best" from="993825359#1" to="985552044#2"/>
    <trip id="bus97" type="bus_bus" depart="382.84" departLane="best" from="-573357374#6" to="-8647521#0"/>
    <trip id="bus98" type="bus_bus" depart="386.78" departLane="best" from="8649126#1" to="8649580#1"/>
    <trip id="bus99" type="bus_bus" depart="390.73" departLane="best" from="289631068#3" to="-943142505#1"/>
    <trip id="bus100" type="bus_bus" depart="394.68" departLane="best" from="8647491#1" to="8641115#3"/>
    <trip id="bus101" type="bus_bus" depart="398.63" departLane="best" from="817406992#0" to="943443717"/>
    <trip id="bus102" type="bus_bus" depart="402.57" departLane="best" from="851480300#1" to="8652182"/>
    <trip id="bus103" type="bus_bus" depart="406.52" departLane="best" from="-8642454#0" to="8640819#2"/>
    <trip id="bus104" type="bus_bus" depart="410.47" departLane="best" departSpeed="max" from="1223509838#0" to="825263838#3"/>
    <trip id="bus105" type="bus_bus" depart="414.41" departLane="best" from="8640537#1" to="1106843295#0"/>
    <trip id="bus106" type="bus_bus" depart="418.36" departLane="best" from="825263838#3" to="8643916#1"/>
    <trip id="bus107" type="bus_bus" depart="422.31" departLane="best" from="485269334#6" to="8650602#7"/>
    <trip id="bus109" type="bus_bus" depart="430.20" departLane="best" from="420495586#1" to="172093621#3"/>
    <trip id="bus110" type="bus_bus" depart="434.15" departLane="best" from="825263839#4" to="138827679#1"/>
    <trip id="bus111" type="bus_bus" depart="438.09" departLane="best" from="-8642489#0" to="749812082#1"/>
    <trip id="bus112" type="bus_bus" depart="442.04" departLane="best" from="-426456577" to="-1175628406#0"/>
    <trip id="bus113" type="bus_bus" depart="445.99" departLane="best" from="591235970#1" to="8649630#5"/>
    <trip id="bus114" type="bus_bus" depart="449.93" departLane="best" from="8650435#1" to="747090064#2"/>
    <trip id="bus115" type="bus_bus" depart="453.88" departLane="best" from="140095575#2" to="8650366#0"/>
    <trip id="bus116" type="bus_bus" depart="457.83" departLane="best" from="8646607#3" to="8648550#3"/>
    <trip id="bus117" type="bus_bus" depart="461.77" departLane="best" from="1121209367#1" to="85890998#1"/>
    <trip id="bus118" type="bus_bus" depart="465.72" departLane="best" from="-1323824617#1" to="8644931"/>
    <trip id="bus119" type="bus_bus" depart="469.67" departLane="best" from="242536052#4" to="8651512#3"/>
    <trip id="bus120" type="bus_bus" depart="473.61" departLane="best" from="-8646816#1" to="8648663#1"/>
    <trip id="bus121" type="bus_bus" depart="477.56" departLane="best" from="8646506#2" to="8638395#2"/>
    <trip id="bus122" type="bus_bus" depart="481.51" departLane="best" from="104210747#1" to="8647380#3"/>
    <trip id="bus123" type="bus_bus" depart="485.45" departLane="best" from="426489346#2" to="242632754#0"/>
    <trip id="bus124" type="bus_bus" depart="489.40" departLane="best" from="8646598#1" to="1188182971#1"/>
    <trip id="bus125" type="bus_bus" depart="493.35" departLane="best" from="-1323824616#1" to="1089126782#0"/>
    <trip id="bus126" type="bus_bus" depart="497.29" departLane="best" from="241180702#7" to="8648663#2"/>
    <trip id="bus127" type="bus_bus" depart="501.24" departLane="best" from="89641249#1" to="173473723#2"/>
    <trip id="bus128" type="bus_bus" depart="505.19" departLane="best" from="825494585#3" to="426456661#1"/>
    <trip id="bus129" type="bus_bus" depart="509.14" departLane="best" from="923656101#1" to="653924644#0"/>
    <trip id="bus130" type="bus_bus" depart="513.08" departLane="best" departSpeed="max" from="8652342#0" to="8640819#2"/>
    <trip id="bus131" type="bus_bus" depart="517.03" departLane="best" from="89641252#2" to="103680390#1"/>
    <trip id="bus132" type="bus_bus" depart="520.98" departLane="best" from="856200767#1" to="426497580#1"/>
    <trip id="bus133" type="bus_bus" depart="524.92" departLane="best" from="8641171#3" to="247748351#1"/>
    <trip id="bus134" type="bus_bus" depart="528.87" departLane="best" from="815603050#3" to="591235976#1"/>
    <trip id="bus135" type="bus_bus" depart="532.82" departLane="best" from="292812690#4" to="816366950#0"/>
    <trip id="bus137" type="bus_bus" depart="540.71" departLane="best" from="104205451#0" to="8651355#5"/>
    <trip id="bus138" type="bus_bus" depart="544.66" departLane="best" from="591217297#2" to="8642281#1"/>
    <trip id="bus139" type="bus_bus" depart="548.60" departLane="best" from="-8642489#1" to="8639327#2"/>
    <trip id="bus140" type="bus_bus" depart="552.55" departLane="best" departSpeed="max" from="85310729#0" to="289468262#0"/>
    <trip id="bus141" type="bus_bus" depart="556.50" departLane="best" from="8640707#2" to="242544492#0"/>
    <trip id="bus142" type="bus_bus" depart="560.44" departLane="best" from="380662074#1" to="242536052#13"/>
    <trip id="bus143" type="bus_bus" depart="564.39" departLane="best" departSpeed="max" from="-8640516#1" to="426489344#1"/>
    <trip id="bus144" type="bus_bus" depart="568.34" departLane="best" departSpeed="max" from="8652342#0" to="8639568#1"/>
    <trip id="bus145" type="bus_bus" depart="572.28" departLane="best" from="103553904#1" to="201707825#1"/>
    <trip id="bus146" type="bus_bus" depart="576.23" departLane="best" from="426456594#2" to="817406992#0"/>
    <trip id="bus147" type="bus_bus" depart="580.18" departLane="best" from="830619438#2" to="48981989"/>
    <trip id="bus148" type="bus_bus" depart="584.12" departLane="best" from="426484910#1" to="1121981969#1"/>
    <trip id="bus149" type="bus_bus" depart="588.07" departLane="best" from="426497569#0" to="8650435#2"/>
    <trip id="bus150" type="bus_bus" depart="592.02" departLane="best" from="-798341511#4" to="591278027#1"/>
    <trip id="bus151" type="bus_bus" depart="595.96" departLane="best" from="825263837#4" to="289631068#1"/>
    <trip id="bus152" type="bus_bus" depart="599.91" departLane="best" from="863038355#0" to="1188182968"/>
    <trip id="bus153" type="bus_bus" depart="603.86" departLane="best" from="-993825359#2" to="-242536054#0"/>
    <trip id="bus154" type="bus_bus" depart="607.80" departLane="best" from="1108974693#1" to="518404087#1"/>
    <trip id="bus155" type="bus_bus" depart="611.75" departLane="best" from="8648049#2" to="63104587#1"/>
    <trip id="bus156" type="bus_bus" depart="615.70" departLane="best" from="404948105#3" to="832677773#1"/>
    <trip id="bus157" type="bus_bus" depart="619.65" departLane="best" from="830619438#4" to="1120503844"/>
    <trip id="bus158" type="bus_bus" depart="623.59" departLane="best" departSpeed="max" from="544506503" to="-41940341#0"/>
    <trip id="bus159" type="bus_bus" depart="627.54" departLane="best" from="1121209367#1" to="8648179#2"/>
    <trip id="bus160" type="bus_bus" depart="631.49" departLane="best" from="426489269#1" to="8647152#1"/>
    <trip id="bus161" type="bus_bus" depart="635.43" departLane="best" from="856200767#0" to="-943460422#1"/>
    <trip id="bus163" type="bus_bus" depart="643.33" departLane="best" from="8650048#1" to="825494585#10"/>
    <trip id="bus164" type="bus_bus" depart="647.27" departLane="best" from="8640707#1" to="591217318#1"/>
    <trip id="bus165" type="bus_bus" depart="651.22" departLane="best" from="8647456#2" to="747090068#0"/>
    <trip id="bus166" type="bus_bus" depart="655.17" departLane="best" from="8650333#1" to="8645084#1"/>
    <trip id="bus167" type="bus_bus" depart="659.11" departLane="best" from="-1212692908#0" to="138798811"/>
    <trip id="bus168" type="bus_bus" depart="663.06" departLane="best" from="-1120509015#0" to="856119100#2"/>
    <trip id="bus169" type="bus_bus" depart="667.01" departLane="best" from="8645388#2" to="591908557#2"/>
    <trip id="bus170" type="bus_bus" depart="670.95" departLane="best" from="823316163#0" to="172092941#3"/>
    <trip id="bus171" type="bus_bus" depart="674.90" departLane="best" from="635014475#0" to="199586487#2"/>
    <trip id="bus172" type="bus_bus" depart="678.85" departLane="best" from="-426497572#1" to="289456617#0"/>
    <trip id="bus173" type="bus_bus" depart="682.79" departLane="best" from="591217319#1" to="8647152#1"/>
    <trip id="bus174" type="bus_bus" depart="686.74" departLane="best" from="1089126780#1" to="8640516#1"/>
    <trip id="bus175" type="bus_bus" depart="690.69" departLane="best" from="8639962#5" to="-48983695#0"/>
    <trip id="bus176" type="bus_bus" depart="694.63" departLane="best" from="380662085#4" to="747090063#0"/>
    <trip id="bus178" type="bus_bus" depart="702.53" departLane="best" from="747090068#0" to="8640516#1"/>
    <trip id="bus179" type="bus_bus" depart="706.47" departLane="best" departSpeed="max" from="8648357#0" to="8646359#4"/>
    <trip id="bus180" type="bus_bus" depart="710.42" departLane="best" from="289424188#10" to="8646035#1"/>
    <trip id="bus181" type="bus_bus" depart="714.37" departLane="best" from="8648219#1" to="8865420#5"/>
    <trip id="bus182" type="bus_bus" depart="718.31" departLane="best" from="591235976#1" to="825263837#4"/>
    <trip id="bus183" type="bus_bus" depart="722.26" departLane="best" from="426456625#2" to="-289468264#3"/>
    <trip id="bus184" type="bus_bus" depart="726.21" departLane="best" from="242544492#1" to="8639923#2"/>
    <trip id="bus185" type="bus_bus" depart="730.16" departLane="best" from="380662075#2" to="1000832622#1"/>
    <trip id="bus186" type="bus_bus" depart="734.10" departLane="best" departSpeed="max" from="426492007#0" to="8646223#4"/>
    <trip id="bus187" type="bus_bus" depart="738.05" departLane="best" from="-380662067#1" to="806281875#2"/>
    <trip id="bus188" type="bus_bus" depart="742.00" departLane="best" departSpeed="max" from="-138827709" to="862549735#1"/>
    <trip id="bus189" type="bus_bus" depart="745.94" departLane="best" from="-426456571#1" to="405884718#1"/>
    <trip id="bus190" type="bus_bus" depart="749.89" departLane="best" from="8645216#1" to="405884718#1"/>
    <trip id="bus191" type="bus_bus" depart="753.84" departLane="best" from="1121981969#1" to="798341511#5"/>
    <trip id="bus192" type="bus_bus" depart="757.78" departLane="best" from="-8865420#2" to="1098934122#0"/>
    <trip id="bus193" type="bus_bus" depart="761.73" departLane="best" from="-1313300066" to="-8651870#1"/>
    <trip id="bus194" type="bus_bus" depart="765.68" departLane="best" from="8639478#3" to="8646389#4"/>
    <trip id="bus195" type="bus_bus" depart="769.62" departLane="best" from="-8648179#1" to="825263839#4"/>
    <trip id="bus196" type="bus_bus" depart="773.57" departLane="best" from="8643916#1" to="8640819#1"/>
    <trip id="bus197" type="bus_bus" depart="777.52" departLane="best" from="8640354#1" to="-678127463#0"/>
    <trip id="bus198" type="bus_bus" depart="781.46" departLane="best" from="8638390#4" to="832677772"/>
    <trip id="bus199" type="bus_bus" depart="785.41" departLane="best" from="830619438#4" to="8646460#4"/>
    <trip id="bus200" type="bus_bus" depart="789.36" departLane="best" from="8648049#3" to="825263831"/>
    <trip id="bus201" type="bus_bus" depart="793.30" departLane="best" departSpeed="max" from="-8639568#1" to="931384763"/>
    <trip id="bus202" type="bus_bus" depart="797.25" departLane="best" from="8646455#2" to="292812690#3"/>
    <trip id="bus203" type="bus_bus" depart="801.20" departLane="best" from="426456582#0" to="380662085#6"/>
    <trip id="bus204" type="bus_bus" depart="805.14" departLane="best" from="8648049#2" to="8647456#2"/>
    <trip id="bus205" type="bus_bus" depart="809.09" departLane="best" from="844528872#0" to="8865426#8"/>
    <trip id="bus206" type="bus_bus" depart="813.04" departLane="best" from="825263839#1" to="8647494#0"/>
    <trip id="bus207" type="bus_bus" depart="816.98" departLane="best" from="8640064#1" to="426497580#1"/>
    <trip id="bus208" type="bus_bus" depart="820.93" departLane="best" from="1198318806#1" to="8647350#4"/>
    <trip id="bus209" type="bus_bus" depart="824.88" departLane="best" from="1195901265#1" to="8648229#0"/>
    <trip id="bus210" type="bus_bus" depart="828.82" departLane="best" from="8649126#3" to="1299607131#1"/>
    <trip id="bus211" type="bus_bus" depart="832.77" departLane="best" from="-426491164#0" to="825494574#1"/>
    <trip id="bus212" type="bus_bus" depart="836.72" departLane="best" departSpeed="max" from="292809511#0" to="-289468264#3"/>
    <trip id="bus213" type="bus_bus" depart="840.67" departLane="best" from="8648049#4" to="1039343430#3"/>
    <trip id="bus214" type="bus_bus" depart="844.61" departLane="best" from="242632754#0" to="8649630#1"/>
    <trip id="bus215" type="bus_bus" depart="848.56" departLane="best" from="8639923#1" to="172093621#0"/>
    <trip id="bus216" type="bus_bus" depart="852.51" departLane="best" from="-1188182968" to="8652528#0"/>
    <trip id="bus217" type="bus_bus" depart="856.45" departLane="best" departSpeed="max" from="-798341511#6" to="8642281#1"/>
    <trip id="bus218" type="bus_bus" depart="860.40" departLane="best" from="485269334#6" to="8646223#1"/>
    <trip id="bus219" type="bus_bus" depart="864.35" departLane="best" from="8638390#4" to="8636684#5"/>
    <trip id="bus220" type="bus_bus" depart="868.29" departLane="best" from="485292832#1" to="8646962#0"/>
    <trip id="bus221" type="bus_bus" depart="872.24" departLane="best" departSpeed="max" from="-825494574#1" to="1166056604#1"/>
    <trip id="bus222" type="bus_bus" depart="876.19" departLane="best" from="-8638395#2" to="579261235#0"/>
    <trip id="bus223" type="bus_bus" depart="880.13" departLane="best" from="579642751#1" to="426491162#0"/>
    <trip id="bus224" type="bus_bus" depart="884.08" departLane="best" from="-8643915#2" to="289468262#0"/>
    <trip id="bus225" type="bus_bus" depart="888.03" departLane="best" from="8639923#5" to="140065785#2"/>
    <trip id="bus226" type="bus_bus" depart="891.97" departLane="best" from="-8651870#1" to="1126768951#1"/>
    <trip id="bus227" type="bus_bus" depart="895.92" departLane="best" from="448441075#1" to="8643649#1"/>
    <trip id="bus228" type="bus_bus" depart="899.87" departLane="best" from="916811162#0" to="627355753"/>
    <trip id="bus229" type="bus_bus" depart="903.81" departLane="best" from="-985552044#0" to="1188182971#1"/>
    <trip id="bus230" type="bus_bus" depart="907.76" departLane="best" from="89691955#2" to="749812082#2"/>
    <trip id="bus231" type="bus_bus" depart="911.71" departLane="best" from="8639350#4" to="-8646223#1"/>
    <trip id="bus232" type="bus_bus" depart="915.65" departLane="best" from="426492008#0" to="426659496#1"/>
    <trip id="bus233" type="bus_bus" depart="919.60" departLane="best" from="8651504#2" to="-426456577"/>
    <trip id="bus234" type="bus_bus" depart="923.55" departLane="best" from="8647356#2" to="426456738#1"/>
    <trip id="bus235" type="bus_bus" depart="927.49" departLane="best" from="426488103#0" to="-8650900#1"/>
    <trip id="bus236" type="bus_bus" depart="931.44" departLane="best" from="63104564#1" to="242631723#1"/>
    <trip id="bus237" type="bus_bus" depart="935.39" departLane="best" from="970425325" to="-8641571#8"/>
    <trip id="bus238" type="bus_bus" depart="939.33" departLane="best" from="8646541#1" to="1188182969#1"/>
    <trip id="bus239" type="bus_bus" depart="943.28" departLane="best" from="426484910#2" to="8648550#3"/>
    <trip id="bus240" type="bus_bus" depart="947.23" departLane="best" from="943460422#0" to="242632754#0"/>
    <trip id="bus241" type="bus_bus" depart="951.18" departLane="best" from="8642454#2" to="8652524#1"/>
    <trip id="bus242" type="bus_bus" depart="955.12" departLane="best" departSpeed="max" from="-8648270#1" to="-635014475#1"/>
    <trip id="bus243" type="bus_bus" depart="959.07" departLane="best" from="1089126782#0" to="8641166#6"/>
    <trip id="bus244" type="bus_bus" depart="963.02" departLane="best" from="8639923#7" to="485292836#0"/>
    <trip id="bus245" type="bus_bus" depart="966.96" departLane="best" from="8646520#1" to="830619438#1"/>
    <trip id="bus246" type="bus_bus" depart="970.91" departLane="best" from="846620949#1" to="8651566#3"/>
    <trip id="bus247" type="bus_bus" depart="974.86" departLane="best" from="826634235" to="8650900#1"/>
    <trip id="bus248" type="bus_bus" depart="978.80" departLane="best" from="8647432#1" to="-591235970#1"/>
    <trip id="bus249" type="bus_bus" depart="982.75" departLane="best" departSpeed="max" from="-8648025#1" to="8651704#0"/>
    <trip id="bus250" type="bus_bus" depart="986.70" departLane="best" from="1317061159" to="-8643915#4"/>
    <trip id="bus251" type="bus_bus" depart="990.64" departLane="best" from="8638390#1" to="8640707#2"/>
    <trip id="bus252" type="bus_bus" depart="994.59" departLane="best" from="8652409#2" to="591136310#3"/>
    <trip id="bus253" type="bus_bus" depart="998.54" departLane="best" departSpeed="max" from="199586485" to="1317061159"/>
    <trip id="bus255" type="bus_bus" depart="1006.43" departLane="best" from="-8865420#4" to="993825360#1"/>
    <trip id="bus256" type="bus_bus" depart="1010.38" departLane="best" from="863038355#0" to="139069159"/>
    <trip id="bus257" type="bus_bus" depart="1014.32" departLane="best" from="292809744#1" to="8646058"/>
    <trip id="bus258" type="bus_bus" depart="1018.27" departLane="best" departSpeed="max" from="426492009#0" to="8637722#1"/>
    <trip id="bus259" type="bus_bus" depart="1022.22" departLane="best" from="8651161#1" to="1039343430#1"/>
    <trip id="bus260" type="bus_bus" depart="1026.16" departLane="best" from="485292836#0" to="-830619438#0"/>
    <trip id="bus261" type="bus_bus" depart="1030.11" departLane="best" from="247748351#0" to="-289468264#1"/>
    <trip id="bus262" type="bus_bus" depart="1034.06" departLane="best" from="-85891007#1" to="8648507#4"/>
    <trip id="bus263" type="bus_bus" depart="1038.00" departLane="best" from="426488942" to="255667897#0"/>
    <trip id="bus264" type="bus_bus" depart="1041.95" departLane="best" from="199586487#2" to="89641251#2"/>
    <trip id="bus265" type="bus_bus" depart="1045.90" departLane="best" from="380662075#2" to="591278027#0"/>
    <trip id="bus266" type="bus_bus" depart="1049.84" departLane="best" departSpeed="max" from="943443719" to="8638109#1"/>