<?xml version="1.0" encoding="UTF-8"?>

<!-- generated on 2024-11-05 18:44:12.970885 by osmWebWizard.py v1_21_0+0000-d7b3b481c43
<configuration>
    <net-file value="C:\Windows\system32\2024-11-05-18-42-37\osm.net.xml.gz"/>
    <output-trip-file value="C:\Windows\system32\2024-11-05-18-42-37\osm.passenger.trips.xml"/>
    <route-file value="C:\Windows\system32\2024-11-05-18-42-37\osm.passenger.rou.xml"/>
    <prefix value="veh"/>
    <trip-attributes value="departLane=&quot;best&quot;"/>
    <fringe-start-attributes value="departSpeed=&quot;max&quot;"/>
    <vehicle-class value="passenger"/>
    <lanes value="True"/>
    <fringe-factor value="5"/>
    <allow-fringe.min-length value="1000.0"/>
    <via-edge-types value="highway.motorway,highway.motorway_link,highway.trunk_link,highway.primary_link,highway.secondary_link,highway.tertiary_link"/>
    <min-distance value="300.0"/>
    <min-distance.fringe value="10.0"/>
    <remove-loops value="True"/>
    <validate value="True"/>
    <insertion-density value="120.0"/>
</configuration>
-->

<!-- generated on 2024-11-05 18:44:08 by Eclipse SUMO duarouter Version 1.21.0
<duarouterConfiguration xmlns:xsi="http://www.w3.org/2001/XMLSchema-instance" xsi:noNamespaceSchemaLocation="http://sumo.dlr.de/xsd/duarouterConfiguration.xsd">

    <input>
        <net-file value="C:\Windows\system32\2024-11-05-18-42-37\osm.net.xml.gz"/>
        <route-files value="C:\Windows\system32\2024-11-05-18-42-37\osm.passenger.trips.xml"/>
    </input>

    <output>
        <output-file value="C:\Windows\system32\2024-11-05-18-42-37\osm.passenger.trips.xml.tmp"/>
        <alternatives-output value="NUL"/>
        <write-trips value="true"/>
    </output>

    <processing>
        <remove-loops value="true"/>
    </processing>

    <time>
        <begin value="0.0"/>
        <end value="3600.0"/>
    </time>

    <report>
        <no-warnings value="true"/>
        <ignore-errors value="true"/>
        <no-step-log value="true"/>
    </report>

</duarouterConfiguration>
-->

<routes xmlns:xsi="http://www.w3.org/2001/XMLSchema-instance" xsi:noNamespaceSchemaLocation="http://sumo.dlr.de/xsd/routes_file.xsd">
    <vType id="veh_passenger" vClass="passenger"/>
    <trip id="veh0" type="veh_passenger" depart="0.00" departLane="best" departSpeed="max" from="822078647#0" to="-242652627#0"/>
    <trip id="veh1" type="veh_passenger" depart="0.26" departLane="best" from="8639962#3" to="8638014#5"/>
    <trip id="veh2" type="veh_passenger" depart="0.52" departLane="best" from="8650197#1" to="85891007#0"/>
    <trip id="veh3" type="veh_passenger" depart="0.78" departLane="best" from="426484910#1" to="-289654498"/>
    <trip id="veh4" type="veh_passenger" depart="1.04" departLane="best" from="1120131787#0" to="-591235970#0"/>
    <trip id="veh5" type="veh_passenger" depart="1.30" departLane="best" from="-1323824617#0" to="1195901265#0"/>
    <trip id="veh6" type="veh_passenger" depart="1.56" departLane="best" from="823316162#0" to="747090063#0"/>
    <trip id="veh7" type="veh_passenger" depart="1.81" departLane="best" from="-1120509015#0" to="818143469"/>
    <trip id="veh8" type="veh_passenger" depart="2.07" departLane="best" from="8646622#1" to="1120509015#0"/>
    <trip id="veh9" type="veh_passenger" depart="2.33" departLane="best" from="8646607#1" to="8639568#1"/>
    <trip id="veh10" type="veh_passenger" depart="2.59" departLane="best" from="89641251#2" to="404948105#1"/>
    <trip id="veh11" type="veh_passenger" depart="2.85" departLane="best" from="-844528872#2" to="8642489#0"/>
    <trip id="veh12" type="veh_passenger" depart="3.11" departLane="best" from="8648049#2" to="823316160"/>
    <trip id="veh13" type="veh_passenger" depart="3.37" departLane="best" from="8646607#3" to="8641806#2"/>
    <trip id="veh14" type="veh_passenger" depart="3.63" departLane="best" from="591136306#0" to="931384763"/>
    <trip id="veh15" type="veh_passenger" depart="3.89" departLane="best" from="380662072#0" to="747090068#3"/>
    <trip id="veh16" type="veh_passenger" depart="4.15" departLane="best" from="-8647432#3" to="825263831"/>
    <trip id="veh18" type="veh_passenger" depart="4.67" departLane="best" from="856200767#0" to="293227068#0"/>
    <trip id="veh19" type="veh_passenger" depart="4.93" departLane="best" from="1123326681#2" to="255667897#1"/>
    <trip id="veh20" type="veh_passenger" depart="5.19" departLane="best" from="-806431512" to="138798811"/>
    <trip id="veh21" type="veh_passenger" depart="5.44" departLane="best" departSpeed="max" from="-8638109#1" to="579261235#0"/>
    <trip id="veh22" type="veh_passenger" depart="5.70" departLane="best" from="822078628#1" to="426456649#0"/>
    <trip id="veh23" type="veh_passenger" depart="5.96" departLane="best" from="333071936#1" to="1285819244#1"/>
    <trip id="veh24" type="veh_passenger" depart="6.22" departLane="best" from="1285819769#1" to="8652409#3"/>
    <trip id="veh25" type="veh_passenger" depart="6.48" departLane="best" from="823316159#1" to="825263822#1"/>
    <trip id="veh26" type="veh_passenger" depart="6.74" departLane="best" from="1018283100" to="8641806#1"/>
    <trip id="veh27" type="veh_passenger" depart="7.00" departLane="best" from="-993825359#2" to="426487627#0"/>
    <trip id="veh28" type="veh_passenger" depart="7.26" departLane="best" from="944109700#2" to="825998783#0"/>
    <trip id="veh29" type="veh_passenger" depart="7.52" departLane="best" from="591677195#0" to="8638390#0"/>
    <trip id="veh30" type="veh_passenger" depart="7.78" departLane="best" from="8647872#2" to="8646359#4"/>
    <trip id="veh31" type="veh_passenger" depart="8.04" departLane="best" from="163516970#0" to="292807008#4"/>
    <trip id="veh32" type="veh_passenger" depart="8.30" departLane="best" from="1098934123#1" to="8865420#1"/>
    <trip id="veh33" type="veh_passenger" depart="8.56" departLane="best" from="8649126#0" to="292807008#4"/>
    <trip id="veh35" type="veh_passenger" depart="9.07" departLane="best" from="8651325#3" to="48982055#0"/>
    <trip id="veh36" type="veh_passenger" depart="9.33" departLane="best" from="1285819768" to="163516970#0"/>
    <trip id="veh37" type="veh_passenger" depart="9.59" departLane="best" departSpeed="max" from="678127463#0" to="8651153#0"/>
    <trip id="veh38" type="veh_passenger" depart="9.85" departLane="best" from="420774507#4" to="1312615599#0"/>
    <trip id="veh39" type="veh_passenger" depart="10.11" departLane="best" from="-990899889#3" to="591235979#2"/>
    <trip id="veh40" type="veh_passenger" depart="10.37" departLane="best" departSpeed="max" from="-832677772" to="295875087#1"/>
    <trip id="veh41" type="veh_passenger" depart="10.63" departLane="best" from="-8640819#2" to="825263838#3"/>
    <trip id="veh42" type="veh_passenger" depart="10.89" departLane="best" from="485292830" to="426487629#0"/>
    <trip id="veh43" type="veh_passenger" depart="11.15" departLane="best" from="985552043#0" to="620770779#0"/>
    <trip id="veh44" type="veh_passenger" depart="11.41" departLane="best" from="923656101#1" to="8648789#3"/>
    <trip id="veh45" type="veh_passenger" depart="11.67" departLane="best" from="-1212692909" to="8641166#2"/>
    <trip id="veh46" type="veh_passenger" depart="11.93" departLane="best" departSpeed="max" from="828869387#0" to="63104590#3"/>
    <trip id="veh47" type="veh_passenger" depart="12.19" departLane="best" from="1285819769#1" to="825998783#1"/>
    <trip id="veh48" type="veh_passenger" depart="12.45" departLane="best" from="426490574#1" to="8866326#2"/>
    <trip id="veh49" type="veh_passenger" depart="12.70" departLane="best" from="8649116" to="241180702#2"/>
    <trip id="veh51" type="veh_passenger" depart="13.22" departLane="best" from="806281875#2" to="1096242208#0"/>
    <trip id="veh52" type="veh_passenger" depart="13.48" departLane="best" from="8641806#2" to="-635014475#1"/>
    <trip id="veh53" type="veh_passenger" depart="13.74" departLane="best" from="-103680391#1" to="380662067#1"/>
    <trip id="veh54" type="veh_passenger" depart="14.00" departLane="best" departSpeed="max" from="-1299607131#1" to="8652182"/>
    <trip id="veh55" type="veh_passenger" depart="14.26" departLane="best" from="8649126#3" to="8647872#1"/>
    <trip id="veh56" type="veh_passenger" depart="14.52" departLane="best" from="-206541037#1" to="485292830"/>
    <trip id="veh57" type="veh_passenger" depart="14.78" departLane="best" from="8649126#2" to="8865426#14"/>
    <trip id="veh59" type="veh_passenger" depart="15.30" departLane="best" from="570185090#0" to="8645084#1"/>
    <trip id="veh60" type="veh_passenger" depart="15.56" departLane="best" from="8641806#5" to="1003706978#1"/>
    <trip id="veh61" type="veh_passenger" depart="15.82" departLane="best" from="426659559#1" to="747090068#1"/>
    <trip id="veh62" type="veh_passenger" depart="16.08" departLane="best" from="1285819768" to="8649630#5"/>
    <trip id="veh63" type="veh_passenger" depart="16.33" departLane="best" from="426484920" to="1285819768"/>
    <trip id="veh64" type="veh_passenger" depart="16.59" departLane="best" from="591136310#0" to="8641806#2"/>
    <trip id="veh65" type="veh_passenger" depart="16.85" departLane="best" from="1096242208#1" to="290084391#1"/>
    <trip id="veh66" type="veh_passenger" depart="17.11" departLane="best" from="970425331" to="830619438#3"/>
    <trip id="veh67" type="veh_passenger" depart="17.37" departLane="best" from="426488939#1" to="591908556#0"/>
    <trip id="veh68" type="veh_passenger" depart="17.63" departLane="best" from="-8646460#3" to="1323824615#1"/>
    <trip id="veh69" type="veh_passenger" depart="17.89" departLane="best" from="289462373#0" to="817406992#2"/>
    <trip id="veh71" type="veh_passenger" depart="18.41" departLane="best" from="-573357374#6" to="825263840"/>
    <trip id="veh72" type="veh_passenger" depart="18.67" departLane="best" from="163516970#0" to="8651205"/>
    <trip id="veh73" type="veh_passenger" depart="18.93" departLane="best" from="8648507#5" to="-678127463#0"/>
    <trip id="veh74" type="veh_passenger" depart="19.19" departLane="best" from="1188182969#1" to="863038355#0"/>
    <trip id="veh75" type="veh_passenger" depart="19.45" departLane="best" from="1106843296" to="1018283100"/>
    <trip id="veh77" type="veh_passenger" depart="19.96" departLane="best" from="426659495" to="8646541#2"/>
    <trip id="veh78" type="veh_passenger" depart="20.22" departLane="best" from="8646607#5" to="1188182968"/>
    <trip id="veh79" type="veh_passenger" depart="20.48" departLane="best" from="862549735#0" to="426870767#1"/>
    <trip id="veh80" type="veh_passenger" depart="20.74" departLane="best" from="426484920" to="518404087#1"/>
    <trip id="veh81" type="veh_passenger" depart="21.00" departLane="best" from="8639327#2" to="8637586#3"/>
    <trip id="veh82" type="veh_passenger" depart="21.26" departLane="best" departSpeed="max" from="943443719" to="-8643915#4"/>
    <trip id="veh83" type="veh_passenger" depart="21.52" departLane="best" from="426456582#0" to="404948105#6"/>
    <trip id="veh84" type="veh_passenger" depart="21.78" departLane="best" departSpeed="max" from="8648527#0" to="172093621#0"/>
    <trip id="veh85" type="veh_passenger" depart="22.04" departLane="best" from="426484910#1" to="242633873#0"/>
    <trip id="veh86" type="veh_passenger" depart="22.30" departLane="best" from="1198318807#0" to="8651566#2"/>
    <trip id="veh87" type="veh_passenger" depart="22.56" departLane="best" from="426488942" to="8649056#1"/>
    <trip id="veh88" type="veh_passenger" depart="22.82" departLane="best" from="591235979#1" to="-426456577"/>
    <trip id="veh89" type="veh_passenger" depart="23.08" departLane="best" from="993825359#2" to="8648025#1"/>
    <trip id="veh90" type="veh_passenger" depart="23.34" departLane="best" from="91996567#2" to="8651870#1"/>
    <trip id="veh91" type="veh_passenger" depart="23.59" departLane="best" from="8648049#4" to="1106843296"/>
    <trip id="veh92" type="veh_passenger" depart="23.85" departLane="best" from="485269334#2" to="1285819769#1"/>
    <trip id="veh93" type="veh_passenger" depart="24.11" departLane="best" from="426456571#0" to="485292838#2"/>
    <trip id="veh94" type="veh_passenger" depart="24.37" departLane="best" from="380662073#1" to="944116814"/>
    <trip id="veh95" type="veh_passenger" depart="24.63" departLane="best" from="1285819768" to="8646541#0"/>
    <trip id="veh96" type="veh_passenger" depart="24.89" departLane="best" from="426490741" to="426498010#1"/>
    <trip id="veh97" type="veh_passenger" depart="25.15" departLane="best" from="89641251#2" to="985552044#2"/>
    <trip id="veh99" type="veh_passenger" depart="25.67" departLane="best" from="-943142505#1" to="289468262#0"/>
    <trip id="veh101" type="veh_passenger" depart="26.19" departLane="best" from="591217297#1" to="8644437#5"/>
    <trip id="veh102" type="veh_passenger" depart="26.45" departLane="best" from="-426492390#1" to="816366950#1"/>
    <trip id="veh103" type="veh_passenger" depart="26.71" departLane="best" from="48982055#1" to="8648550#3"/>
    <trip id="veh104" type="veh_passenger" depart="26.97" departLane="best" from="-970425331" to="89641252#2"/>
    <trip id="veh105" type="veh_passenger" depart="27.22" departLane="best" from="-806431512" to="1154673770#1"/>
    <trip id="veh106" type="veh_passenger" depart="27.48" departLane="best" from="747090068#1" to="8637970#0"/>
    <trip id="veh107" type="veh_passenger" depart="27.74" departLane="best" from="1166056604#1" to="944109700#2"/>
    <trip id="veh108" type="veh_passenger" depart="28.00" departLane="best" from="8650197#0" to="140095575#2"/>
    <trip id="veh109" type="veh_passenger" depart="28.26" departLane="best" from="747090068#1" to="825263831"/>
    <trip id="veh110" type="veh_passenger" depart="28.52" departLane="best" from="426472927#0" to="816366950#0"/>
    <trip id="veh111" type="veh_passenger" depart="28.78" departLane="best" from="579261235#0" to="8652409#1"/>
    <trip id="veh112" type="veh_passenger" depart="29.04" departLane="best" from="1098934122#0" to="8640707#2"/>
    <trip id="veh113" type="veh_passenger" depart="29.30" departLane="best" from="1188182969#1" to="591217318#1"/>
    <trip id="veh114" type="veh_passenger" depart="29.56" departLane="best" from="825494584#1" to="289468262#0"/>
    <trip id="veh115" type="veh_passenger" depart="29.82" departLane="best" from="242536054#0" to="8644931"/>
    <trip id="veh117" type="veh_passenger" depart="30.34" departLane="best" from="993825359#1" to="985552044#2"/>
    <trip id="veh118" type="veh_passenger" depart="30.59" departLane="best" from="635014475#0" to="1285819769#1"/>
    <trip id="veh119" type="veh_passenger" depart="30.85" departLane="best" from="1285819768" to="8652368#1"/>
    <trip id="veh120" type="veh_passenger" depart="31.11" departLane="best" from="8649126#6" to="8650028#1"/>
    <trip id="veh121" type="veh_passenger" depart="31.37" departLane="best" from="333071936#0" to="1098934122#1"/>
    <trip id="veh122" type="veh_passenger" depart="31.63" departLane="best" from="8647491#1" to="8640064#2"/>
    <trip id="veh123" type="veh_passenger" depart="31.89" departLane="best" from="-806431512" to="947114313#1"/>
    <trip id="veh124" type="veh_passenger" depart="32.15" departLane="best" departSpeed="max" from="825263821#0" to="426491386#1"/>
    <trip id="veh125" type="veh_passenger" depart="32.41" departLane="best" from="8647039#1" to="289468262#0"/>
    <trip id="veh126" type="veh_passenger" depart="32.67" departLane="best" from="825263837#2" to="8652451#1"/>
    <trip id="veh127" type="veh_passenger" depart="32.93" departLane="best" departSpeed="max" from="-8648218#1" to="8865420#1"/>
    <trip id="veh128" type="veh_passenger" depart="33.19" departLane="best" departSpeed="max" from="-8640516#1" to="747090074"/>
    <trip id="veh130" type="veh_passenger" depart="33.71" departLane="best" from="818607102#0" to="241180702#4"/>
    <trip id="veh131" type="veh_passenger" depart="33.97" departLane="best" from="485292828#0" to="8651205"/>
    <trip id="veh133" type="veh_passenger" depart="34.48" departLane="best" from="426484920" to="242631723#2"/>
    <trip id="veh134" type="veh_passenger" depart="34.74" departLane="best" from="1089085521#1" to="8646058"/>
    <trip id="veh135" type="veh_passenger" depart="35.00" departLane="best" departSpeed="max" from="822078647#0" to="201707825#1"/>
    <trip id="veh136" type="veh_passenger" depart="35.26" departLane="best" from="8640122#2" to="747090068#3"/>
    <trip id="veh137" type="veh_passenger" depart="35.52" departLane="best" from="426487627#0" to="1188182968"/>
    <trip id="veh138" type="veh_passenger" depart="35.78" departLane="best" from="-749812082#1" to="8650197#1"/>
    <trip id="veh139" type="veh_passenger" depart="36.04" departLane="best" from="8647491#1" to="289638711#0"/>
    <trip id="veh140" type="veh_passenger" depart="36.30" departLane="best" departSpeed="max" from="-8651358#1" to="1003706978#0"/>
    <trip id="veh141" type="veh_passenger" depart="36.56" departLane="best" from="241180702#2" to="8651153#1"/>
    <trip id="veh143" type="veh_passenger" depart="37.08" departLane="best" from="8650366#1" to="1285819244#1"/>
    <trip id="veh144" type="veh_passenger" depart="37.34" departLane="best" from="1198318807#0" to="-8646460#3"/>
    <trip id="veh145" type="veh_passenger" depart="37.60" departLane="best" from="8645083#1" to="8650197#3"/>
    <trip id="veh146" type="veh_passenger" depart="37.85" departLane="best" from="426456594#3" to="825263837#0"/>
    <trip id="veh147" type="veh_passenger" depart="38.11" departLane="best" from="-943142505#1" to="8652182"/>
    <trip id="veh150" type="veh_passenger" depart="38.89" departLane="best" from="-1323824615#2" to="8642281#1"/>
    <trip id="veh151" type="veh_passenger" depart="39.15" departLane="best" from="242998461#3" to="8652182"/>
    <trip id="veh152" type="veh_passenger" depart="39.41" departLane="best" from="8646520#3" to="-48983695#0"/>
    <trip id="veh153" type="veh_passenger" depart="39.67" departLane="best" from="8645388#2" to="8648179#1"/>
    <trip id="veh154" type="veh_passenger" depart="39.93" departLane="best" from="8648789#2" to="8648788#2"/>
    <trip id="veh155" type="veh_passenger" depart="40.19" departLane="best" from="1121209367#0" to="8647456#3"/>
    <trip id="veh156" type="veh_passenger" depart="40.45" departLane="best" from="-426491387#1" to="289631068#0"/>
    <trip id="veh158" type="veh_passenger" depart="40.97" departLane="best" from="-1323824615#1" to="1188182970#0"/>
    <trip id="veh159" type="veh_passenger" depart="41.23" departLane="best" departSpeed="max" from="242998461#0" to="8649126#0"/>
    <trip id="veh160" type="veh_passenger" depart="41.48" departLane="best" from="91996567#0" to="242633874#1"/>
    <trip id="veh161" type="veh_passenger" depart="41.74" departLane="best" from="822078647#1" to="426489344#1"/>
    <trip id="veh163" type="veh_passenger" depart="42.26" departLane="best" from="8652528#2" to="-8652368#1"/>
    <trip id="veh164" type="veh_passenger" depart="42.52" departLane="best" from="923656101#0" to="1121696256#3"/>
    <trip id="veh165" type="veh_passenger" depart="42.78" departLane="best" departSpeed="max" from="89641548" to="241180702#7"/>
    <trip id="veh166" type="veh_passenger" depart="43.04" departLane="best" from="-8640571#1" to="448441075#2"/>
    <trip id="veh167" type="veh_passenger" depart="43.30" departLane="best" from="8639327#1" to="292807008#2"/>
    <trip id="veh168" type="veh_passenger" depart="43.56" departLane="best" from="806281875#0" to="591236019#1"/>
    <trip id="veh170" type="veh_passenger" depart="44.08" departLane="best" departSpeed="max" from="1223509838#0" to="8640148#0"/>
    <trip id="veh171" type="veh_passenger" depart="44.34" departLane="best" from="-1089085520#1" to="8651845#0"/>
    <trip id="veh172" type="veh_passenger" depart="44.60" departLane="best" from="591136307#1" to="8641166#1"/>
    <trip id="veh173" type="veh_passenger" depart="44.86" departLane="best" departSpeed="max" from="292967031#1" to="-635014475#0"/>
    <trip id="veh174" type="veh_passenger" depart="45.11" departLane="best" from="825263837#4" to="380662072#0"/>
    <trip id="veh175" type="veh_passenger" depart="45.37" departLane="best" from="242536052#4" to="8648507#4"/>
    <trip id="veh176" type="veh_passenger" depart="45.63" departLane="best" from="241180702#4" to="426491162#0"/>
    <trip id="veh177" type="veh_passenger" depart="45.89" departLane="best" from="426456582#0" to="289462997#2"/>
    <trip id="veh178" type="veh_passenger" depart="46.15" departLane="best" from="879039476#0" to="8638014#6"/>
    <trip id="veh179" type="veh_passenger" depart="46.41" departLane="best" from="8650619#1" to="825263830#3"/>
    <trip id="veh180" type="veh_passenger" depart="46.67" departLane="best" from="830619438#4" to="747090065"/>
    <trip id="veh182" type="veh_passenger" depart="47.19" departLane="best" from="426487629#0" to="815603050#1"/>
    <trip id="veh183" type="veh_passenger" depart="47.45" departLane="best" from="825263821#2" to="51811528#1"/>
    <trip id="veh184" type="veh_passenger" depart="47.71" departLane="best" from="426488940#5" to="1285819769#1"/>
    <trip id="veh185" type="veh_passenger" depart="47.97" departLane="best" from="426659495" to="8651156#1"/>
    <trip id="veh187" type="veh_passenger" depart="48.49" departLane="best" departSpeed="max" from="-825494574#1" to="591677195#0"/>
    <trip id="veh188" type="veh_passenger" depart="48.74" departLane="best" from="8647066#0" to="8644931"/>
    <trip id="veh189" type="veh_passenger" depart="49.00" departLane="best" from="825494585#10" to="-1323824615#1"/>
    <trip id="veh190" type="veh_passenger" depart="49.26" departLane="best" from="1089126783#0" to="242633873#0"/>
    <trip id="veh191" type="veh_passenger" depart="49.52" departLane="best" from="1188182972#1" to="563391197"/>
    <trip id="veh192" type="veh_passenger" depart="49.78" departLane="best" from="8648179#2" to="-678127463#0"/>
    <trip id="veh193" type="veh_passenger" depart="50.04" departLane="best" from="426456637" to="825263839#2"/>
    <trip id="veh194" type="veh_passenger" depart="50.30" departLane="best" from="1089085522" to="8639478#3"/>
    <trip id="veh195" type="veh_passenger" depart="50.56" departLane="best" from="485292838#2" to="139069160"/>
    <trip id="veh197" type="veh_passenger" depart="51.08" departLane="best" from="8641115#2" to="8646058"/>
    <trip id="veh198" type="veh_passenger" depart="51.34" departLane="best" from="-8640516#0" to="426659496#1"/>
    <trip id="veh199" type="veh_passenger" depart="51.60" departLane="best" departSpeed="max" from="1031513328" to="89641251#2"/>
    <trip id="veh200" type="veh_passenger" depart="51.86" departLane="best" departSpeed="max" from="544506503" to="-426456577"/>
    <trip id="veh201" type="veh_passenger" depart="52.12" departLane="best" from="1198318807#0" to="8648507#4"/>
    <trip id="veh202" type="veh_passenger" depart="52.37" departLane="best" from="426491162#0" to="8647066#0"/>
    <trip id="veh203" type="veh_passenger" depart="52.63" departLane="best" from="825263838#3" to="947114313#2"/>
    <trip id="veh204" type="veh_passenger" depart="52.89" departLane="best" from="8650197#1" to="825263830#0"/>
    <trip id="veh205" type="veh_passenger" depart="53.15" departLane="best" from="426487624#3" to="591217320#2"/>
    <trip id="veh206" type="veh_passenger" depart="53.41" departLane="best" from="8647456#14" to="747090065"/>
    <trip id="veh207" type="veh_passenger" depart="53.67" departLane="best" from="8650349#3" to="8643915#1"/>
    <trip id="veh209" type="veh_passenger" depart="54.19" departLane="best" from="1195901266" to="825494585#9"/>
    <trip id="veh210" type="veh_passenger" depart="54.45" departLane="best" from="8641806#5" to="591908557#0"/>
    <trip id="veh211" type="veh_passenger" depart="54.71" departLane="best" from="815957499#3" to="242544970"/>
    <trip id="veh212" type="veh_passenger" depart="54.97" departLane="best" from="-798341511#2" to="244444287"/>
    <trip id="veh213" type="veh_passenger" depart="55.23" departLane="best" from="-1313300066" to="295875086#1"/>
    <trip id="veh214" type="veh_passenger" depart="55.49" departLane="best" from="591136310#1" to="1039343430#1"/>
    <trip id="veh215" type="veh_passenger" depart="55.75" departLane="best" from="1147916780" to="8639327#5"/>
    <trip id="veh216" type="veh_passenger" depart="56.00" departLane="best" from="-85890998#1" to="-533466403#0"/>
    <trip id="veh217" type="veh_passenger" depart="56.26" departLane="best" from="426456606#0" to="678127463#3"/>
    <trip id="veh218" type="veh_passenger" depart="56.52" departLane="best" from="426472927#1" to="8651205"/>
    <trip id="veh219" type="veh_passenger" depart="56.78" departLane="best" from="671208885#1" to="8639478#0"/>
    <trip id="veh220" type="veh_passenger" depart="57.04" departLane="best" from="8866323#0" to="8646035#1"/>
    <trip id="veh221" type="veh_passenger" depart="57.30" departLane="best" from="380662075#0" to="1120503844"/>
    <trip id="veh222" type="veh_passenger" depart="57.56" departLane="best" from="426659560#0" to="8644957#1"/>
    <trip id="veh223" type="veh_passenger" depart="57.82" departLane="best" departSpeed="max" from="8648357#0" to="8866326#2"/>
    <trip id="veh224" type="veh_passenger" depart="58.08" departLane="best" from="426472927#0" to="8644437#5"/>
    <trip id="veh225" type="veh_passenger" depart="58.34" departLane="best" from="591217320#1" to="823316160"/>
    <trip id="veh226" type="veh_passenger" depart="58.60" departLane="best" from="-1120509015#0" to="1312615599#2"/>
    <trip id="veh227" type="veh_passenger" depart="58.86" departLane="best" from="426488106#1" to="-289468264#3"/>
    <trip id="veh228" type="veh_passenger" depart="59.12" departLane="best" from="289424188#11" to="8638109#1"/>
    <trip id="veh229" type="veh_passenger" depart="59.37" departLane="best" from="426456594#0" to="1106843295#1"/>
    <trip id="veh230" type="veh_passenger" depart="59.63" departLane="best" from="-426492389#1" to="1003706978#0"/>
    <trip id="veh231" type="veh_passenger" depart="59.89" departLane="best" from="814346831#2" to="-289468264#0"/>
    <trip id="veh232" type="veh_passenger" depart="60.15" departLane="best" from="420495585#0" to="806281875#0"/>
    <trip id="veh233" type="veh_passenger" depart="60.41" departLane="best" from="-1323824617#1" to="826634235"/>
    <trip id="veh234" type="veh_passenger" depart="60.67" departLane="best" from="8648219#1" to="495576909#1"/>
    <trip id="veh235" type="veh_passenger" depart="60.93" departLane="best" departSpeed="max" from="-426456738#2" to="426487627#0"/>
    <trip id="veh236" type="veh_passenger" depart="61.19" departLane="best" from="1106843295#0" to="380662069#1"/>
    <trip id="veh237" type="veh_passenger" depart="61.45" departLane="best" from="8641806#1" to="426487627#0"/>
    <trip id="veh238" type="veh_passenger" depart="61.71" departLane="best" from="8641166#1" to="8647872#2"/>
    <trip id="veh239" type="veh_passenger" depart="61.97" departLane="best" departSpeed="max" from="1223509838#0" to="844528872#1"/>
    <trip id="veh240" type="veh_passenger" depart="62.23" departLane="best" departSpeed="max" from="-1299607131#1" to="-635014475#1"/>
    <trip id="veh241" type="veh_passenger" depart="62.49" departLane="best" from="993825360#1" to="426456571#0"/>
    <trip id="veh242" type="veh_passenger" depart="62.75" departLane="best" from="823316162#0" to="8646460#1"/>
    <trip id="veh243" type="veh_passenger" depart="63.00" departLane="best" departSpeed="max" from="825263821#0" to="8645083#1"/>
    <trip id="veh244" type="veh_passenger" depart="63.26" departLane="best" from="591908557#1" to="1312615598#0"/>
    <trip id="veh245" type="veh_passenger" depart="63.52" departLane="best" from="846628946#1" to="8646035#5"/>
    <trip id="veh246" type="veh_passenger" depart="63.78" departLane="best" from="48982055#3" to="825263822#0"/>
    <trip id="veh247" type="veh_passenger" depart="64.04" departLane="best" from="8640537#1" to="-8651870#2"/>
    <trip id="veh248" type="veh_passenger" depart="64.30" departLane="best" departSpeed="max" from="-8640516#1" to="-242652627#0"/>
    <trip id="veh249" type="veh_passenger" depart="64.56" departLane="best" from="89641252#0" to="426489269#1"/>
    <trip id="veh250" type="veh_passenger" depart="64.82" departLane="best" from="8638014#1" to="798341511#5"/>
    <trip id="veh251" type="veh_passenger" depart="65.08" departLane="best" from="830619438#2" to="825263838#1"/>
    <trip id="veh252" type="veh_passenger" depart="65.34" departLane="best" from="8638403#1" to="8646223#5"/>
    <trip id="veh253" type="veh_passenger" depart="65.60" departLane="best" from="8648229#0" to="822604874"/>
    <trip id="veh254" type="veh_passenger" depart="65.86" departLane="best" from="-8646460#3" to="943443717"/>
    <trip id="veh255" type="veh_passenger" depart="66.12" departLane="best" departSpeed="max" from="48983697" to="405884718#1"/>
    <trip id="veh256" type="veh_passenger" depart="66.38" departLane="best" from="8648179#2" to="8647494#0"/>
    <trip id="veh257" type="veh_passenger" depart="66.63" departLane="best" from="818642780" to="8647575#4"/>
    <trip id="veh258" type="veh_passenger" depart="66.89" departLane="best" from="-85891007#1" to="485269334#0"/>
    <trip id="veh260" type="veh_passenger" depart="67.41" departLane="best" from="1312615599#0" to="8647351#2"/>
    <trip id="veh261" type="veh_passenger" depart="67.67" departLane="best" from="591136307#1" to="579272015#1"/>
    <trip id="veh262" type="veh_passenger" depart="67.93" departLane="best" from="426488106#0" to="8641806#3"/>
    <trip id="veh263" type="veh_passenger" depart="68.19" departLane="best" from="1312615597#2" to="8648550#2"/>
    <trip id="veh264" type="veh_passenger" depart="68.45" departLane="best" from="8647456#14" to="85891007#0"/>