<?xml version="1.0" encoding="UTF-8"?>

<!-- generated on 2024-11-05 18:46:00.040940 by osmWebWizard.py v1_21_0+0000-d7b3b481c43
<configuration>
    <net-file value="C:\Windows\system32\2024-11-05-18-42-37\osm.net.xml.gz"/>
    <output-trip-file value="C:\Windows\system32\2024-11-05-18-42-37\osm.truck.trips.xml"/>
    <route-file value="C:\Windows\system32\2024-11-05-18-42-37\osm.truck.rou.xml"/>
    <prefix value="truck"/>
    <trip-attributes value="departLane=&quot;best&quot;"/>
    <fringe-start-attributes value="departSpeed=&quot;max&quot;"/>
    <vehicle-class value="truck"/>
    <fringe-factor value="7"/>
    <vclass value="truck"/>
    <via-edge-types value="highway.motorway,highway.motorway_link,highway.trunk_link,highway.primary_link,highway.secondary_link,highway.tertiary_link"/>
    <min-distance value="600.0"/>
    <min-distance.fringe value="10.0"/>
    <remove-loops value="True"/>
    <validate value="True"/>
    <insertion-density value="15.0"/>
</configuration>
-->

<!-- generated on 2024-11-05 18:45:58 by Eclipse SUMO duarouter Version 1.21.0
<duarouterConfiguration xmlns:xsi="http://www.w3.org/2001/XMLSchema-instance" xsi:noNamespaceSchemaLocation="http://sumo.dlr.de/xsd/duarouterConfiguration.xsd">

    <input>
        <net-file value="C:\Windows\system32\2024-11-05-18-42-37\osm.net.xml.gz"/>
        <route-files value="C:\Windows\system32\2024-11-05-18-42-37\osm.truck.trips.xml"/>
    </input>

    <output>
        <output-file value="C:\Windows\system32\2024-11-05-18-42-37\osm.truck.trips.xml.tmp"/>
        <alternatives-output value="NUL"/>
        <write-trips value="true"/>
    </output>

    <processing>
        <remove-loops value="true"/>
    </processing>

    <time>
        <begin value="0.0"/>
        <end value="3600.0"/>
    </time>

    <report>
        <no-warnings value="true"/>
        <ignore-errors value="true"/>
        <no-step-log value="true"/>
    </report>

</duarouterConfiguration>
-->

<routes xmlns:xsi="http://www.w3.org/2001/XMLSchema-instance" xsi:noNamespaceSchemaLocation="http://sumo.dlr.de/xsd/routes_file.xsd">
    <vType id="truck_truck" vClass="truck"/>
    <trip id="truck0" type="truck_truck" depart="0.00" departLane="best" from="822078647#3" to="-289468264#3"/>
    <trip id="truck1" type="truck_truck" depart="2.07" departLane="best" from="1098934123#1" to="1284186043#2"/>
    <trip id="truck2" type="truck_truck" depart="4.15" departLane="best" from="-426497570#2" to="8639962#2"/>
    <trip id="truck4" type="truck_truck" depart="8.30" departLane="best" from="380662067#2" to="-292809511#0"/>
    <trip id="truck5" type="truck_truck" depart="10.37" departLane="best" departSpeed="max" from="-8651358#1" to="604252821#2"/>
    <trip id="truck6" type="truck_truck" depart="12.45" departLane="best" departSpeed="max" from="-138827709" to="1120503844"/>
    <trip id="truck7" type="truck_truck" depart="14.52" departLane="best" from="-8651870#2" to="825263831"/>
    <trip id="truck8" type="truck_truck" depart="16.59" departLane="best" from="8646622#1" to="8641115#3"/>
    <trip id="truck9" type="truck_truck" depart="18.67" departLane="best" from="8865427#2" to="292812690#1"/>
    <trip id="truck10" type="truck_truck" depart="20.74" departLane="best" departSpeed="max" from="-798341511#6" to="-85310729#0"/>
    <trip id="truck15" type="truck_truck" depart="31.11" departLane="best" from="8647432#1" to="832677772"/>
    <trip id="truck16" type="truck_truck" depart="33.19" departLane="best" from="8648507#4" to="823316162#0"/>
    <trip id="truck17" type="truck_truck" depart="35.26" departLane="best" from="8638252#4" to="293227068#0"/>
    <trip id="truck18" type="truck_truck" depart="37.34" departLane="best" from="-985552044#0" to="242536052#5"/>
    <trip id="truck19" type="truck_truck" depart="39.41" departLane="best" from="591235970#0" to="1299607131#1"/>
    <trip id="truck21" type="truck_truck" depart="43.56" departLane="best" departSpeed="max" from="822078647#0" to="405884718#1"/>
    <trip id="truck22" type="truck_truck" depart="45.63" departLane="best" departSpeed="max" from="242998461#0" to="1160157713#0"/>
    <trip id="truck23" type="truck_truck" depart="47.71" departLane="best" from="1089126782#0" to="8651870#2"/>
    <trip id="truck24" type="truck_truck" depart="49.78" departLane="best" from="-8646223#2" to="426456618#0"/>
    <trip id="truck25" type="truck_truck" depart="51.86" departLane="best" departSpeed="max" from="943443719" to="8637586#1"/>
    <trip id="truck26" type="truck_truck" depart="53.93" departLane="best" from="591136306#2" to="8640309#1"/>
    <trip id="truck27" type="truck_truck" depart="56.00" departLane="best" from="8647872#0" to="8646598#0"/>
    <trip id="truck28" type="truck_truck" depart="58.08" departLane="best" departSpeed="max" from="-985552044#2" to="-292809511#0"/>
    <trip id="truck29" type="truck_truck" depart="60.15" departLane="best" departSpeed="max" from="-8651156#2" to="8652368#1"/>
    <trip id="truck30" type="truck_truck" depart="62.23" departLane="best" from="8649056#1" to="289462374#1"/>
    <trip id="truck31" type="truck_truck" depart="64.30" departLane="best" from="825263837#4" to="426487629#0"/>
    <trip id="truck32" type="truck_truck" depart="66.38" departLane="best" from="8651161#1" to="495576909#2"/>
    <trip id="truck33" type="truck_truck" depart="68.45" departLane="best" from="1089121701" to="1329768965"/>
    <trip id="truck34" type="truck_truck" depart="70.52" departLane="best" from="591217297#1" to="139069160"/>
    <trip id="truck35" type="truck_truck" depart="72.60" departLane="best" from="-292807009#1" to="1198318806#1"/>
    <trip id="truck36" type="truck_truck" depart="74.67" departLane="best" from="-990899889#1" to="63104564#1"/>
    <trip id="truck37" type="truck_truck" depart="76.75" departLane="best" from="-798341511#4" to="295875087#1"/>
    <trip id="truck38" type="truck_truck" depart="78.82" departLane="best" from="8646455#2" to="426498010#1"/>
    <trip id="truck39" type="truck_truck" depart="80.90" departLane="best" departSpeed="max" from="-426497580#1" to="426456630#1"/>
    <trip id="truck40" type="truck_truck" depart="82.97" departLane="best" from="89691955#2" to="8648788#1"/>
    <trip id="truck41" type="truck_truck" depart="85.04" departLane="best" from="846620949#1" to="798341511#1"/>
    <trip id="truck42" type="truck_truck" depart="87.12" departLane="best" from="1089126782#0" to="8637586#6"/>
    <trip id="truck43" type="truck_truck" depart="89.19" departLane="best" departSpeed="max" from="-832677772" to="485269334#2"/>
    <trip id="truck44" type="truck_truck" depart="91.27" departLane="best" from="8649056#1" to="140065785#1"/>
    <trip id="truck45" type="truck_truck" depart="93.34" departLane="best" from="-1212692909" to="104210747#5"/>
    <trip id="truck46" type="truck_truck" depart="95.41" departLane="best" from="-798341511#0" to="8865420#3"/>
    <trip id="truck47" type="truck_truck" depart="97.49" departLane="best" from="8646035#5" to="749812082#2"/>
    <trip id="truck48" type="truck_truck" depart="99.56" departLane="best" from="8649116" to="8647872#2"/>
    <trip id="truck49" type="truck_truck" depart="101.64" departLane="best" departSpeed="max" from="1228698551" to="426492390#1"/>
    <trip id="truck50" type="truck_truck" depart="103.71" departLane="best" from="8650048#1" to="8652451#1"/>
    <trip id="truck51" type="truck_truck" depart="105.79" departLane="best" from="485292838#6" to="8646359#4"/>
    <trip id="truck52" type="truck_truck" depart="107.86" departLane="best" departSpeed="max" from="8644652#0" to="-8646460#1"/>
    <trip id="truck53" type="truck_truck" depart="109.93" departLane="best" from="426488939#1" to="814346831#1"/>
    <trip id="truck54" type="truck_truck" depart="112.01" departLane="best" from="1089121701" to="8649580#1"/>
    <trip id="truck55" type="truck_truck" depart="114.08" departLane="best" from="380662068" to="1185620974#1"/>
    <trip id="truck56" type="truck_truck" depart="116.16" departLane="best" departSpeed="max" from="533473492#1" to="8644931"/>
    <trip id="truck57" type="truck_truck" depart="118.23" departLane="best" from="970425325" to="8638252#1"/>
    <trip id="truck58" type="truck_truck" depart="120.31" departLane="best" from="404948105#2" to="654038108#1"/>
    <trip id="truck59" type="truck_truck" depart="122.38" departLane="best" from="-862549735#1" to="1285819244#0"/>
    <trip id="truck60" type="truck_truck" depart="124.45" departLane="best" from="172092941#0" to="825263831"/>
    <trip id="truck61" type="truck_truck" depart="126.53" departLane="best" departSpeed="max" from="-985552044#2" to="1212692908#2"/>
    <trip id="truck62" type="truck_truck" depart="128.60" departLane="best" from="48983695#1" to="862549735#0"/>
    <trip id="truck63" type="truck_truck" depart="130.68" departLane="best" departSpeed="max" from="-985552044#2" to="8651073#1"/>
    <trip id="truck64" type="truck_truck" depart="132.75" departLane="best" from="8648451#1" to="-570185090#0"/>
    <trip id="truck65" type="truck_truck" depart="134.83" departLane="best" from="48982055#3" to="8639562#2"/>
    <trip id="truck66" type="truck_truck" depart="136.90" departLane="best" from="426487629#0" to="-8646653#1"/>
    <trip id="truck70" type="truck_truck" depart="145.20" departLane="best" from="-573357374#4" to="8639568#1"/>
    <trip id="truck71" type="truck_truck" depart="147.27" departLane="best" departSpeed="max" from="292809511#0" to="293227068#0"/>
    <trip id="truck72" type="truck_truck" depart="149.34" departLane="best" from="8648507#4" to="138827669#2"/>
    <trip id="truck73" type="truck_truck" depart="151.42" departLane="best" departSpeed="max" from="-8648025#1" to="48981989"/>
    <trip id="truck74" type="truck_truck" depart="153.49" departLane="best" from="-380662067#2" to="201707825#1"/>
    <trip id="truck75" type="truck_truck" depart="155.57" departLane="best" departSpeed="max" from="1031513328" to="8651355#4"/>
    <trip id="truck76" type="truck_truck" depart="157.64" departLane="best" departSpeed="max" from="404955582#0" to="8648788#2"/>
    <trip id="truck77" type="truck_truck" depart="159.72" departLane="best" from="579261235#1" to="-41940341#0"/>
    <trip id="truck78" type="truck_truck" depart="161.79" departLane="best" from="993825359#2" to="8648025#1"/>
    <trip id="truck79" type="truck_truck" depart="163.86" departLane="best" departSpeed="max" from="89641548" to="8651358#1"/>
    <trip id="truck80" type="truck_truck" depart="165.94" departLane="best" from="426491162#0" to="1188182969#1"/>
    <trip id="truck81" type="truck_truck" depart="168.01" departLane="best" from="426456582#0" to="426498010#1"/>
    <trip id="truck82" type="truck_truck" depart="170.09" departLane="best" from="579642751#3" to="8643791#0"/>
    <trip id="truck83" type="truck_truck" depart="172.16" departLane="best" departSpeed="max" from="-8644931" to="579261235#0"/>
    <trip id="truck84" type="truck_truck" depart="174.24" departLane="best" departSpeed="max" from="544506503" to="8646035#5"/>
    <trip id="truck85" type="truck_truck" depart="176.31" departLane="best" from="426488103#0" to="825263830#0"/>
    <trip id="truck86" type="truck_truck" depart="178.38" departLane="best" from="426659559#1" to="8648507#1"/>
    <trip id="truck87" type="truck_truck" depart="180.46" departLane="best" departSpeed="max" from="-8644931" to="8865427#5"/>
    <trip id="truck88" type="truck_truck" depart="182.53" departLane="best" from="591235970#1" to="1089126782#0"/>
    <trip id="truck89" type="truck_truck" depart="184.61" departLane="best" departSpeed="max" from="678127463#0" to="-8639923#5"/>
    <trip id="truck90" type="truck_truck" depart="186.68" departLane="best" from="1000832622#1" to="-8644188#1"/>
    <trip id="truck91" type="truck_truck" depart="188.76" departLane="best" from="8649630#8" to="1329768963"/>
    <trip id="truck92" type="truck_truck" depart="190.83" departLane="best" from="333071936#0" to="825263822#1"/>
    <trip id="truck94" type="truck_truck" depart="194.98" departLane="best" departSpeed="max" from="-8649580#1" to="8642489#0"/>
    <trip id="truck95" type="truck_truck" depart="197.05" departLane="best" from="1013953519#1" to="426488102#0"/>
    <trip id="truck97" type="truck_truck" depart="201.20" departLane="best" from="1312615597#2" to="8646058"/>
    <trip id="truck98" type="truck_truck" depart="203.27" departLane="best" from="993825359#1" to="985552044#2"/>
    <trip id="truck99" type="truck_truck" depart="205.35" departLane="best" departSpeed="max" from="-495576909#2" to="1188182968"/>
    <trip id="truck100" type="truck_truck" depart="207.42" departLane="best" from="8649126#2" to="8649630#9"/>
    <trip id="truck101" type="truck_truck" depart="209.50" departLane="best" from="8647456#3" to="8641399#4"/>
    <trip id="truck102" type="truck_truck" depart="211.57" departLane="best" from="801839131" to="-943460422#1"/>
    <trip id="truck103" type="truck_truck" depart="213.65" departLane="best" from="825263837#0" to="1175628406#0"/>
    <trip id="truck104" type="truck_truck" depart="215.72" departLane="best" from="825494585#3" to="8652182"/>
    <trip id="truck105" type="truck_truck" depart="217.79" departLane="best" departSpeed="max" from="-8639568#1" to="-8642454#1"/>
    <trip id="truck106" type="truck_truck" depart="219.87" departLane="best" from="1098934122#1" to="-825494585#3"/>
    <trip id="truck107" type="truck_truck" depart="221.94" departLane="best" from="822078628#1" to="140065785#2"/>
    <trip id="truck108" type="truck_truck" depart="224.02" departLane="best" departSpeed="max" from="426492007#0" to="8651073#1"/>
    <trip id="truck110" type="truck_truck" depart="228.17" departLane="best" from="380662069#0" to="199586487#0"/>
    <trip id="truck111" type="truck_truck" depart="230.24" departLane="best" from="1089085521#2" to="8646520#2"/>
    <trip id="truck112" type="truck_truck" depart="232.31" departLane="best" departSpeed="max" from="822078647#0" to="139069160"/>
    <trip id="truck114" type="truck_truck" depart="236.46" departLane="best" from="380662074#0" to="426497570#3"/>
    <trip id="truck115" type="truck_truck" depart="238.54" departLane="best" departSpeed="max" from="-495576909#2" to="8650028#1"/>
    <trip id="truck116" type="truck_truck" depart="240.61" departLane="best" from="8647456#9" to="825263822#1"/>
    <trip id="truck117" type="truck_truck" depart="242.69" departLane="best" from="-8641571#7" to="-8646375#0"/>
    <trip id="truck118" type="truck_truck" depart="244.76" departLane="best" departSpeed="max" from="1228698551" to="8650435#3"/>
    <trip id="truck119" type="truck_truck" depart="246.83" departLane="best" from="-8646506#2" to="8648766#0"/>
    <trip id="truck120" type="truck_truck" depart="248.91" departLane="best" departSpeed="max" from="1031513328" to="-862549735#0"/>
    <trip id="truck121" type="truck_truck" depart="250.98" departLane="best" from="8646071#1" to="8650028#1"/>
    <trip id="truck122" type="truck_truck" depart="253.06" departLane="best" departSpeed="max" from="292809744#0" to="834856246"/>
    <trip id="truck123" type="truck_truck" depart="255.13" departLane="best" departSpeed="max" from="-8644931" to="8651512#0"/>
    <trip id="truck124" type="truck_truck" depart="257.21" departLane="best" departSpeed="max" from="8648527#0" to="923656101#1"/>
    <trip id="truck125" type="truck_truck" depart="259.28" departLane="best" from="8646962#1" to="8649840#3"/>
    <trip id="truck126" type="truck_truck" depart="261.35" departLane="best" from="8646962#1" to="8648049#3"/>
    <trip id="truck128" type="truck_truck" depart="265.50" departLane="best" from="426456618#1" to="247748351#0"/>
    <trip id="truck129" type="truck_truck" depart="267.58" departLane="best" from="-8646506#1" to="1285819244#1"/>
    <trip id="truck130" type="truck_truck" depart="269.65" departLane="best" from="138827669#1" to="8649056#1"/>
    <trip id="truck131" type="truck_truck" depart="271.72" departLane="best" departSpeed="max" from="89641548" to="201707825#1"/>
    <trip id="truck132" type="truck_truck" depart="273.80" departLane="best" departSpeed="max" from="932735298" to="798341511#0"/>
    <trip id="truck133" type="truck_truck" depart="275.87" departLane="best" departSpeed="max" from="8652342#0" to="8642454#0"/>
    <trip id="truck134" type="truck_truck" depart="277.95" departLane="best" from="89691955#0" to="104210747#5"/>
    <trip id="truck135" type="truck_truck" depart="280.02" departLane="best" from="89641249#1" to="140095575#2"/>
    <trip id="truck136" type="truck_truck" depart="282.10" departLane="best" from="-825494585#3" to="485269334#2"/>
    <trip id="truck137" type="truck_truck" depart="284.17" departLane="best" from="289462374#11" to="823316160"/>
    <trip id="truck138" type="truck_truck" depart="286.24" departLane="best" from="103680390#1" to="8641806#5"/>
    <trip id="truck139" type="truck_truck" depart="288.32" departLane="best" from="104205451#0" to="8651358#1"/>
    <trip id="truck140" type="truck_truck" depart="290.39" departLane="best" from="8641171#3" to="8639568#1"/>
    <trip id="truck141" type="truck_truck" depart="292.47" departLane="best" from="242544970" to="533466405"/>
    <trip id="truck142" type="truck_truck" depart="294.54" departLane="best" from="825494585#7" to="290048940#1"/>
    <trip id="truck143" type="truck_truck" depart="296.62" departLane="best" from="1285819768" to="8648218#1"/>
    <trip id="truck144" type="truck_truck" depart="298.69" departLane="best" departSpeed="max" from="1228698551" to="426490574#1"/>
    <trip id="truck145" type="truck_truck" depart="300.76" departLane="best" departSpeed="max" from="292809511#0" to="242631723#2"/>
    <trip id="truck146" type="truck_truck" depart="302.84" departLane="best" departSpeed="max" from="-8638109#1" to="426497580#1"/>
    <trip id="truck147" type="truck_truck" depart="304.91" departLane="best" from="8652368#1" to="8639962#3"/>
    <trip id="truck148" type="truck_truck" depart="306.99" departLane="best" from="8650366#0" to="830619438#4"/>
    <trip id="truck149" type="truck_truck" depart="309.06" departLane="best" departSpeed="max" from="1223509838#0" to="806431512"/>
    <trip id="truck150" type="truck_truck" depart="311.14" departLane="best" from="103553904#1" to="242536052#11"/>
    <trip id="truck151" type="truck_truck" depart="313.21" departLane="best" from="380662075#2" to="825263822#1"/>
    <trip id="truck152" type="truck_truck" depart="315.28" departLane="best" from="825263837#1" to="-533466403#0"/>
    <trip id="truck153" type="truck_truck" depart="317.36" departLane="best" departSpeed="max" from="404955582#0" to="1188182969#1"/>
    <trip id="truck154" type="truck_truck" depart="319.43" departLane="best" from="426488104#0" to="8650602#4"/>
    <trip id="truck155" type="truck_truck" depart="321.51" departLane="best" departSpeed="max" from="-749812082#2" to="-635014475#1"/>
    <trip id="truck156" type="truck_truck" depart="323.58" departLane="best" from="818607102#1" to="292809511#3"/>
    <trip id="truck157" type="truck_truck" depart="325.65" departLane="best" departSpeed="max" from="828869387#0" to="1285819244#0"/>
    <trip id="truck158" type="truck_truck" depart="327.73" departLane="best" departSpeed="max" from="-8648270#1" to="-289468264#1"/>
    <trip id="truck159" type="truck_truck" depart="329.80" departLane="best" departSpeed="max" from="102645282" to="573357374#6"/>
    <trip id="truck160" type="truck_truck" depart="331.88" departLane="best" from="8648049#3" to="-573357374#6"/>
    <trip id="truck161" type="truck_truck" depart="333.95" departLane="best" departSpeed="max" from="-8648218#1" to="8641115#1"/>
    <trip id="truck162" type="truck_truck" depart="336.03" departLane="best" from="825263838#1" to="1120509015#0"/>
    <trip id="truck163" type="truck_truck" depart="338.10" departLane="best" from="825494585#10" to="426498010#1"/>
    <trip id="truck164" type="truck_truck" depart="340.17" departLane="best" from="8647152#3" to="8865426#4"/>
    <trip id="truck165" type="truck_truck" depart="342.25" departLane="best" from="485292838#7" to="-41940341#0"/>
    <trip id="truck166" type="truck_truck" depart="344.32" departLane="best" departSpeed="max" from="1031513328" to="-8648219#1"/>
    <trip id="truck167" type="truck_truck" depart="346.40" departLane="best" from="426456594#0" to="8647158#1"/>
    <trip id="truck168" type="truck_truck" depart="348.47" departLane="best" from="825998783#1" to="944109700#2"/>
    <trip id="truck169" type="truck_truck" depart="350.55" departLane="best" departSpeed="max" from="678127463#0" to="879039477"/>
    <trip id="truck170" type="truck_truck" depart="352.62" departLane="best" from="8647456#12" to="806431512"/>
    <trip id="truck171" type="truck_truck" depart="354.69" departLane="best" from="8650197#3" to="8645388#1"/>
    <trip id="truck172" type="truck_truck" depart="356.77" departLane="best" from="426488106#1" to="139069160"/>
    <trip id="truck173" type="truck_truck" depart="358.84" departLane="best" departSpeed="max" from="8644652#0" to="747090063#0"/>
    <trip id="truck174" type="truck_truck" depart="360.92" departLane="best" from="570185090#0" to="242536052#1"/>
    <trip id="truck175" type="truck_truck" depart="362.99" departLane="best" from="533473492#2" to="8648179#2"/>
    <trip id="truck176" type="truck_truck" depart="365.07" departLane="best" departSpeed="max" from="-985552044#2" to="8640707#1"/>
    <trip id="truck177" type="truck_truck" depart="367.14" departLane="best" from="8638369#1" to="-48983695#0"/>
    <trip id="truck178" type="truck_truck" depart="369.21" departLane="best" departSpeed="max" from="292809744#0" to="798341511#6"/>
    <trip id="truck179" type="truck_truck" depart="371.29" departLane="best" from="292967031#2" to="1147916780"/>
    <trip id="truck180" type="truck_truck" depart="373.36" departLane="best" from="63104564#3" to="8640819#1"/>
    <trip id="truck181" type="truck_truck" depart="375.44" departLane="best" from="199586487#2" to="8646071#1"/>
    <trip id="truck182" type="truck_truck" depart="377.51" departLane="best" from="8648229#2" to="8865425#2"/>
    <trip id="truck183" type="truck_truck" depart="379.58" departLane="best" from="333071936#0" to="8646035#1"/>
    <trip id="truck184" type="truck_truck" depart="381.66" departLane="best" from="555541342#0" to="-825494585#10"/>
    <trip id="truck185" type="truck_truck" depart="383.73" departLane="best" from="-8651870#2" to="1198318807#0"/>
    <trip id="truck186" type="truck_truck" depart="385.81" departLane="best" from="380662088#2" to="-292809511#0"/>
    <trip id="truck187" type="truck_truck" depart="387.88" departLane="best" from="426484910#2" to="-8646375#0"/>
    <trip id="truck188" type="truck_truck" depart="389.96" departLane="best" from="814346831#2" to="292807008#4"/>
    <trip id="truck189" type="truck_truck" depart="392.03" departLane="best" departSpeed="max" from="-138827709" to="8637970#0"/>
    <trip id="truck190" type="truck_truck" depart="394.10" departLane="best" departSpeed="max" from="-8639568#1" to="495576909#2"/>
    <trip id="truck191" type="truck_truck" depart="396.18" departLane="best" from="8644576#1" to="426456618#0"/>
    <trip id="truck192" type="truck_truck" depart="398.25" departLane="best" from="-8642489#0" to="8650197#0"/>
    <trip id="truck193" type="truck_truck" depart="400.33" departLane="best" departSpeed="max" from="-1299607131#1" to="798341511#6"/>
    <trip id="truck194" type="truck_truck" depart="402.40" departLane="best" from="993825360#1" to="380662073#1"/>
    <trip id="truck195" type="truck_truck" depart="404.48" departLane="best" departSpeed="max" from="825263821#0" to="8646653#1"/>
    <trip id="truck196" type="truck_truck" depart="406.55" departLane="best" from="825263830#0" to="8646223#1"/>
    <trip id="truck197" type="truck_truck" depart="408.62" departLane="best" from="-8865420#5" to="1120509015#0"/>
    <trip id="truck198" type="truck_truck" depart="410.70" departLane="best" departSpeed="max" from="-8637534#1" to="8639568#1"/>
    <trip id="truck199" type="truck_truck" depart="412.77" departLane="best" from="8637722#1" to="8646460#1"/>
    <trip id="truck200" type="truck_truck" depart="414.85" departLane="best" from="-8646460#5" to="825494637#0"/>
    <trip id="truck201" type="truck_truck" depart="416.92" departLane="best" from="8641806#3" to="-8641571#8"/>
    <trip id="truck202" type="truck_truck" depart="419.00" departLane="best" from="-825494585#3" to="-289654498"/>
    <trip id="truck203" type="truck_truck" depart="421.07" departLane="best" from="8865428#0" to="426488103#0"/>
    <trip id="truck204" type="truck_truck" depart="423.14" departLane="best" from="8639350#4" to="-635014475#0"/>
    <trip id="truck205" type="truck_truck" depart="425.22" departLane="best" from="856200767#1" to="856119100#2"/>
    <trip id="truck206" type="truck_truck" depart="427.29" departLane="best" from="-818642780" to="8646541#0"/>
    <trip id="truck207" type="truck_truck" depart="429.37" departLane="best" from="8648049#4" to="825494574#1"/>
    <trip id="truck208" type="truck_truck" depart="431.44" departLane="best" from="862549735#1" to="943443717"/>
    <trip id="truck209" type="truck_truck" depart="433.51" departLane="best" from="-8646223#6" to="380662069#1"/>
    <trip id="truck210" type="truck_truck" depart="435.59" departLane="best" from="426870767#1" to="295875087#1"/>
    <trip id="truck211" type="truck_truck" depart="437.66" departLane="best" from="8648049#3" to="8647494#0"/>
    <trip id="truck212" type="truck_truck" depart="439.74" departLane="best" departSpeed="max" from="822078647#0" to="8647863#2"/>
    <trip id="truck213" type="truck_truck" depart="441.81" departLane="best" from="8640707#1" to="89641249#1"/>
    <trip id="truck214" type="truck_truck" depart="443.89" departLane="best" from="1096242209#0" to="8647356#1"/>
    <trip id="truck215" type="truck_truck" depart="445.96" departLane="best" departSpeed="max" from="533473492#1" to="591136306#2"/>
    <trip id="truck216" type="truck_truck" depart="448.03" departLane="best" from="380662088#2" to="8644931"/>
    <trip id="truck218" type="truck_truck" depart="452.18" departLane="best" from="8649126#3" to="-1323824616#1"/>
    <trip id="truck219" type="truck_truck" depart="454.26" departLane="best" from="289424188#11" to="-292809511#0"/>
    <trip id="truck220" type="truck_truck" depart="456.33" departLane="best" from="8648179#1" to="1089085522"/>
    <trip id="truck221" type="truck_truck" depart="458.41" departLane="best" departSpeed="max" from="-8651156#2" to="8647156#1"/>
    <trip id="truck222" type="truck_truck" depart="460.48" departLane="best" from="172093621#3" to="8649840#0"/>
    <trip id="truck223" type="truck_truck" depart="462.55" departLane="best" from="8638014#1" to="199586487#0"/>
    <trip id="truck224" type="truck_truck" depart="464.63" departLane="best" from="-1212692909" to="8652528#0"/>
    <trip id="truck225" type="truck_truck" depart="466.70" departLane="best" departSpeed="max" from="-749812082#2" to="8643846#2"/>
    <trip id="truck226" type="truck_truck" depart="468.78" departLane="best" departSpeed="max" from="426492007#0" to="8646359#3"/>
    <trip id="truck227" type="truck_truck" depart="470.85" departLane="best" departSpeed="max" from="426492007#0" to="8647045#1"/>
    <trip id="truck229" type="truck_truck" depart="475.00" departLane="best" from="-85890998#1" to="255667897#0"/>
    <trip id="truck230" type="truck_truck" depart="477.07" departLane="best" from="63104562#2" to="-570185090#0"/>
    <trip id="truck231" type="truck_truck" depart="479.15" departLane="best" from="8638014#6" to="173473723#2"/>
    <trip id="truck232" type="truck_truck" depart="481.22" departLane="best" from="103553906#1" to="-8646020#0"/>
    <trip id="truck233" type="truck_truck" depart="483.30" departLane="best" departSpeed="max" from="533473492#1" to="8646359#4"/>
    <trip id="truck234" type="truck_truck" depart="485.37" departLane="best" from="426490574#1" to="8644437#1"/>
    <trip id="truck235" type="truck_truck" depart="487.44" departLane="best" from="923656101#0" to="747090064#2"/>
    <trip id="truck236" type="truck_truck" depart="489.52" departLane="best" departSpeed="max" from="-8648218#1" to="1285819244#1"/>
    <trip id="truck237" type="truck_truck" depart="491.59" departLane="best" departSpeed="max" from="-8647156#1" to="-1313300066"/>
    <trip id="truck238" type="truck_truck" depart="493.67" departLane="best" from="518404087#1" to="186553876#1"/>
    <trip id="truck240" type="truck_truck" depart="497.82" departLane="best" from="8637586#1" to="-8646375#0"/>
    <trip id="truck241" type="truck_truck" depart="499.89" departLane="best" departSpeed="max" from="-8647494#1" to="-41940341#0"/>
    <trip id="truck242" type="truck_truck" depart="501.96" departLane="best" from="8652409#0" to="579272015#2"/>
    <trip id="truck243" type="truck_truck" depart="504.04" departLane="best" from="8647351#1" to="426488940#4"/>
    <trip id="truck244" type="truck_truck" depart="506.11" departLane="best" departSpeed="max" from="-426456738#2" to="8651504#1"/>
    <trip id="truck245" type="truck_truck" depart="508.19" departLane="best" from="426489162#0" to="244444287"/>
    <trip id="truck246" type="truck_truck" depart="510.26" departLane="best" from="947114313#1" to="-8643915#3"/>
    <trip id="truck247" type="truck_truck" depart="512.34" departLane="best" departSpeed="max" from="8644652#0" to="-825494585#9"/>
    <trip id="truck248" type="truck_truck" depart="514.41" departLane="best" from="8646455#0" to="1285819244#1"/>
    <trip id="truck250" type="truck_truck" depart="518.56" departLane="best" departSpeed="max" from="404955582#0" to="8648766#0"/>
    <trip id="truck251" type="truck_truck" depart="520.63" departLane="best" departSpeed="max" from="943443719" to="247748351#0"/>
    <trip id="truck252" type="truck_truck" depart="522.71" departLane="best" from="8641166#5" to="8652524#1"/>