<?xml version="1.0" encoding="UTF-8"?>

<!-- generated on 2024-11-05 18:44:14.660254 by osmWebWizard.py v1_21_0+0000-d7b3b481c43
<configuration>
    <net-file value="C:\Windows\system32\2024-11-05-18-42-37\osm.net.xml.gz"/>
    <output-trip-file value="C:\Windows\system32\2024-11-05-18-42-37\osm.pedestrian.trips.xml"/>
    <route-file value="C:\Windows\system32\2024-11-05-18-42-37\osm.pedestrian.rou.xml"/>
    <pedestrians value="True"/>
    <prefix value="ped"/>
    <vehicle-class value="pedestrian"/>
    <fringe-factor value="1"/>
    <max-distance value="2000.0"/>
    <insertion-density value="100.0"/>
</configuration>
-->

<routes xmlns:xsi="http://www.w3.org/2001/XMLSchema-instance" xsi:noNamespaceSchemaLocation="http://sumo.dlr.de/xsd/routes_file.xsd">
    <vType id="ped_pedestrian" vClass="pedestrian"/>
    <person id="ped0" depart="0.00" type="ped_pedestrian">
        <walk from="823316171#0" to="-172451155#0"/>
    </person>
    <person id="ped1" depart="0.20" type="ped_pedestrian">
        <walk from="23890890#2" to="1279167686#0"/>
    </person>
    <person id="ped2" depart="0.40" type="ped_pedestrian">
        <walk from="828329357" to="825494479"/>
    </person>
    <person id="ped3" depart="0.60" type="ped_pedestrian">
        <walk from="856175172#1" to="-828301024#13"/>
    </person>
    <person id="ped4" depart="0.80" type="ped_pedestrian">
        <walk from="784204803" to="-23890892"/>
    </person>
    <person id="ped5" depart="1.00" type="ped_pedestrian">
        <walk from="1264345332#1" to="817035437#3"/>
    </person>
    <person id="ped6" depart="1.20" type="ped_pedestrian">
        <walk from="-183524213#3" to="1152675081"/>
    </person>
    <person id="ped7" depart="1.39" type="ped_pedestrian">
        <walk from="824020961" to="817426279#0"/>
    </person>
    <person id="ped8" depart="1.59" type="ped_pedestrian">
        <walk from="127555654#2" to="817790550#0"/>
    </person>
    <person id="ped9" depart="1.79" type="ped_pedestrian">
        <walk from="832677762#1" to="-1115616586#1"/>
    </person>
    <person id="ped10" depart="1.99" type="ped_pedestrian">
        <walk from="487613281#1" to="1087035552#0"/>
    </person>
    <person id="ped11" depart="2.19" type="ped_pedestrian">
        <walk from="8651870#1" to="485001511#1"/>
    </person>
    <person id="ped12" depart="2.39" type="ped_pedestrian">
        <walk from="-834242957#0" to="-836269166#0"/>
    </person>
    <person id="ped13" depart="2.59" type="ped_pedestrian">
        <walk from="839074131" to="817790608"/>
    </person>
    <person id="ped14" depart="2.79" type="ped_pedestrian">
        <walk from="832439287" to="827967416#5"/>
    </person>
    <person id="ped15" depart="2.99" type="ped_pedestrian">
        <walk from="817426245#1" to="944479967"/>
    </person>
    <person id="ped16" depart="3.19" type="ped_pedestrian">
        <walk from="690112754#1" to="817426310#0"/>
    </person>
    <person id="ped17" depart="3.39" type="ped_pedestrian">
        <walk from="834856264#1" to="818614250#0"/>
    </person>
    <person id="ped18" depart="3.59" type="ped_pedestrian">
        <walk from="842963306#0" to="817666540#0"/>
    </person>
    <person id="ped19" depart="3.78" type="ped_pedestrian">
        <walk from="825494629#0" to="-426489347#0"/>
    </person>
    <person id="ped20" depart="3.98" type="ped_pedestrian">
        <walk from="1288168762#2" to="292807009#1"/>
    </person>
    <person id="ped21" depart="4.18" type="ped_pedestrian">
        <walk from="-824408752" to="1293737113"/>
    </person>
    <person id="ped22" depart="4.38" type="ped_pedestrian">
        <walk from="-839074128#0" to="23890943"/>
    </person>
    <person id="ped23" depart="4.58" type="ped_pedestrian">
        <walk from="823008372#0" to="658046452#0"/>
    </person>
    <person id="ped24" depart="4.78" type="ped_pedestrian">
        <walk from="658046518#2" to="1219880589#1"/>
    </person>
    <person id="ped25" depart="4.98" type="ped_pedestrian">
        <walk from="23786710#0" to="8647145"/>
    </person>
    <person id="ped26" depart="5.18" type="ped_pedestrian">
        <walk from="823996342#5" to="818143470#0"/>
    </person>
    <person id="ped27" depart="5.38" type="ped_pedestrian">
        <walk from="1115616613" to="827967416#0"/>
    </person>
    <person id="ped28" depart="5.58" type="ped_pedestrian">
        <walk from="1099347465" to="690112770"/>
    </person>
    <person id="ped29" depart="5.78" type="ped_pedestrian">
        <walk from="97830844#0" to="823476899"/>
    </person>
    <person id="ped30" depart="5.98" type="ped_pedestrian">
        <walk from="817426321#5" to="825494519#0"/>
    </person>
    <person id="ped31" depart="6.17" type="ped_pedestrian">
        <walk from="839074110" to="830619436#1"/>
    </person>
    <person id="ped32" depart="6.37" type="ped_pedestrian">
        <walk from="1288544607#2" to="-23890943"/>
    </person>
    <person id="ped33" depart="6.57" type="ped_pedestrian">
        <walk from="396258280#0" to="23786716#0"/>
    </person>
    <person id="ped34" depart="6.77" type="ped_pedestrian">
        <walk from="1221657932" to="8648507#5"/>
    </person>
    <person id="ped35" depart="6.97" type="ped_pedestrian">
        <walk from="849793787#0" to="396258223#3"/>
    </person>
    <person id="ped36" depart="7.17" type="ped_pedestrian">
        <walk from="824394689" to="696756900#1"/>
    </person>
    <person id="ped37" depart="7.37" type="ped_pedestrian">
        <walk from="862549273#1" to="815602981#1"/>
    </person>
    <person id="ped38" depart="7.57" type="ped_pedestrian">
        <walk from="236582627" to="140095576#0"/>
    </person>
    <person id="ped39" depart="7.77" type="ped_pedestrian">
        <walk from="817426341" to="236579318#1"/>
    </person>
    <person id="ped40" depart="7.97" type="ped_pedestrian">
        <walk from="817666564#1" to="857574467#1"/>
    </person>
    <person id="ped41" depart="8.17" type="ped_pedestrian">
        <walk from="696756912#1" to="127555646#1"/>
    </person>
    <person id="ped42" depart="8.37" type="ped_pedestrian">
        <walk from="990899883#2" to="817361867#0"/>
    </person>
    <person id="ped43" depart="8.56" type="ped_pedestrian">
        <walk from="-832081442#0" to="-485292839#2"/>
    </person>
    <person id="ped44" depart="8.76" type="ped_pedestrian">
        <walk from="-863038354#0" to="822088234#2"/>
    </person>
    <person id="ped45" depart="8.96" type="ped_pedestrian">
        <walk from="832081401#0" to="784204804"/>
    </person>
    <person id="ped46" depart="9.16" type="ped_pedestrian">
        <walk from="-814346830#1" to="690944536"/>
    </person>
    <person id="ped47" depart="9.36" type="ped_pedestrian">
        <walk from="978894901" to="817426226#0"/>
    </person>
    <person id="ped48" depart="9.56" type="ped_pedestrian">
        <walk from="944112495#0" to="842963302"/>
    </person>
    <person id="ped49" depart="9.76" type="ped_pedestrian">
        <walk from="-1119835971#1" to="826360114#0"/>
    </person>
    <person id="ped50" depart="9.96" type="ped_pedestrian">
        <walk from="825494508" to="817426250#0"/>
    </person>
    <person id="ped51" depart="10.16" type="ped_pedestrian">
        <walk from="23786695" to="823476905#1"/>
    </person>
    <person id="ped52" depart="10.36" type="ped_pedestrian">
        <walk from="-8638252#2" to="805583377"/>
    </person>
    <person id="ped53" depart="10.56" type="ped_pedestrian">
        <walk from="815485564" to="8651096#3"/>
    </person>
    <person id="ped54" depart="10.76" type="ped_pedestrian">
        <walk from="848266633#1" to="236582613"/>
    </person>
    <person id="ped55" depart="10.96" type="ped_pedestrian">
        <walk from="816906859#0" to="1116058175"/>
    </person>
    <person id="ped56" depart="11.15" type="ped_pedestrian">
        <walk from="860134720" to="845115239#1"/>
    </person>
    <person id="ped57" depart="11.35" type="ped_pedestrian">
        <walk from="32800382#0" to="823316168#0"/>
    </person>
    <person id="ped58" depart="11.55" type="ped_pedestrian">
        <walk from="818143469" to="104210747#5"/>
    </person>
    <person id="ped59" depart="11.75" type="ped_pedestrian">
        <walk from="829477721#1" to="817426264#3"/>
    </person>
    <person id="ped60" depart="11.95" type="ped_pedestrian">
        <walk from="830619450#1" to="817426229#1"/>
    </person>
    <person id="ped61" depart="12.15" type="ped_pedestrian">
        <walk from="-1030057021" to="426489344#1"/>
    </person>
    <person id="ped62" depart="12.35" type="ped_pedestrian">
        <walk from="-140065787#1" to="8639801#0"/>
    </person>
    <person id="ped63" depart="12.55" type="ped_pedestrian">
        <walk from="850688508#5" to="836269166#0"/>
    </person>
    <person id="ped64" depart="12.75" type="ped_pedestrian">
        <walk from="387748568#0" to="-690112754#0"/>
    </person>
    <person id="ped65" depart="12.95" type="ped_pedestrian">
        <walk from="850688508#0" to="8649126#2"/>
    </person>
    <person id="ped66" depart="13.15" type="ped_pedestrian">
        <walk from="-826315162" to="815610750"/>
    </person>
    <person id="ped67" depart="13.35" type="ped_pedestrian">
        <walk from="830121190" to="-8651845#1"/>
    </person>
    <person id="ped68" depart="13.54" type="ped_pedestrian">
        <walk from="815606400#1" to="817426298"/>
    </person>
    <person id="ped69" depart="13.74" type="ped_pedestrian">
        <walk from="236582634#0" to="846047442"/>
    </person>
    <person id="ped70" depart="13.94" type="ped_pedestrian">
        <walk from="785134079" to="122411156#2"/>
    </person>
    <person id="ped71" depart="14.14" type="ped_pedestrian">
        <walk from="817426264#3" to="827967419#1"/>
    </person>
    <person id="ped72" depart="14.34" type="ped_pedestrian">
        <walk from="1154670875#1" to="396258211#1"/>
    </person>
    <person id="ped73" depart="14.54" type="ped_pedestrian">
        <walk from="97830873#2" to="824020961"/>
    </person>
    <person id="ped74" depart="14.74" type="ped_pedestrian">
        <walk from="810642367#0" to="817426200"/>
    </person>
    <person id="ped75" depart="14.94" type="ped_pedestrian">
        <walk from="-8648583#0" to="1281777361#0"/>
    </person>
    <person id="ped76" depart="15.14" type="ped_pedestrian">
        <walk from="485200675#1" to="817775844#1"/>
    </person>
    <person id="ped77" depart="15.34" type="ped_pedestrian">
        <walk from="1289691146#1" to="127555654#0"/>
    </person>
    <person id="ped78" depart="15.54" type="ped_pedestrian">
        <walk from="1288544607#1" to="857610831#1"/>
    </person>
    <person id="ped79" depart="15.74" type="ped_pedestrian">
        <walk from="842963297#0" to="-822078628#1"/>
    </person>
    <person id="ped80" depart="15.93" type="ped_pedestrian">
        <walk from="1303174797#1" to="825290114#0"/>
    </person>
    <person id="ped81" depart="16.13" type="ped_pedestrian">
        <walk from="1227660626#0" to="-916811161#0"/>
    </person>
    <person id="ped82" depart="16.33" type="ped_pedestrian">
        <walk from="8646622#0" to="817666521#3"/>
    </person>
    <person id="ped83" depart="16.53" type="ped_pedestrian">
        <walk from="815606388" to="831226166#4"/>
    </person>
    <person id="ped84" depart="16.73" type="ped_pedestrian">
        <walk from="832439290#0" to="1148989891#0"/>
    </person>
    <person id="ped85" depart="16.93" type="ped_pedestrian">
        <walk from="785134087#1" to="815603049#1"/>
    </person>
    <person id="ped86" depart="17.13" type="ped_pedestrian">
        <walk from="94482777#1" to="-839074117#3"/>
    </person>
    <person id="ped87" depart="17.33" type="ped_pedestrian">
        <walk from="740022043#5" to="487613278#0"/>
    </person>
    <person id="ped88" depart="17.53" type="ped_pedestrian">
        <walk from="842963306#0" to="160690467#1"/>
    </person>
    <person id="ped89" depart="17.73" type="ped_pedestrian">
        <walk from="1148989889#1" to="815050613#3"/>
    </person>
    <person id="ped90" depart="17.93" type="ped_pedestrian">
        <walk from="784204802" to="23890946#3"/>
    </person>
    <person id="ped91" depart="18.13" type="ped_pedestrian">
        <walk from="165358923#1" to="862976450"/>
    </person>
    <person id="ped92" depart="18.33" type="ped_pedestrian">
        <walk from="814391423" to="842963304#1"/>
    </person>
    <person id="ped93" depart="18.52" type="ped_pedestrian">
        <walk from="817426301" to="-566657861#1"/>
    </person>
    <person id="ped94" depart="18.72" type="ped_pedestrian">
        <walk from="99809130#0" to="836269186#1"/>
    </person>
    <person id="ped95" depart="18.92" type="ped_pedestrian">
        <walk from="943724354#1" to="8638252#1"/>
    </person>
    <person id="ped96" depart="19.12" type="ped_pedestrian">
        <walk from="839087077" to="1112835160#7"/>
    </person>
    <person id="ped97" depart="19.32" type="ped_pedestrian">
        <walk from="815610749#0" to="1227648415#0"/>
    </person>
    <person id="ped98" depart="19.52" type="ped_pedestrian">
        <walk from="719656882#0" to="-719639142#2"/>
    </person>
    <person id="ped99" depart="19.72" type="ped_pedestrian">
        <walk from="690112764#1" to="94482794"/>
    </person>
    <person id="ped100" depart="19.92" type="ped_pedestrian">
        <walk from="236582634#1" to="831226165#1"/>
    </person>
    <person id="ped101" depart="20.12" type="ped_pedestrian">
        <walk from="815488390#3" to="785134078"/>
    </person>
    <person id="ped102" depart="20.32" type="ped_pedestrian">
        <walk from="8651870#2" to="97836632#1"/>
    </person>
    <person id="ped103" depart="20.52" type="ped_pedestrian">
        <walk from="817426320#1" to="826360096#0"/>
    </person>
    <person id="ped104" depart="20.72" type="ped_pedestrian">
        <walk from="108236232#1" to="32601706#1"/>
    </person>
    <person id="ped105" depart="20.91" type="ped_pedestrian">
        <walk from="943451698#1" to="817666545#1"/>
    </person>
    <person id="ped106" depart="21.11" type="ped_pedestrian">
        <walk from="817426270#0" to="828329441#1"/>
    </person>
    <person id="ped107" depart="21.31" type="ped_pedestrian">
        <walk from="-660628033#8" to="817666563#0"/>
    </person>
    <person id="ped108" depart="21.51" type="ped_pedestrian">
        <walk from="816906869#1" to="841074535#1"/>
    </person>
    <person id="ped109" depart="21.71" type="ped_pedestrian">
        <walk from="1098934122#1" to="878403910"/>
    </person>
    <person id="ped110" depart="21.91" type="ped_pedestrian">
        <walk from="-824408754#0" to="1133901640#2"/>
    </person>
    <person id="ped111" depart="22.11" type="ped_pedestrian">
        <walk from="817790567#1" to="825494470#0"/>
    </person>
    <person id="ped112" depart="22.31" type="ped_pedestrian">
        <walk from="1298240396#1" to="-8648229#3"/>
    </person>
    <person id="ped113" depart="22.51" type="ped_pedestrian">
        <walk from="856119096#1" to="140093533#0"/>
    </person>
    <person id="ped114" depart="22.71" type="ped_pedestrian">
        <walk from="817790565#0" to="818614400#1"/>
    </person>
    <person id="ped115" depart="22.91" type="ped_pedestrian">
        <walk from="779305871" to="817666561#4"/>
    </person>
    <person id="ped116" depart="23.11" type="ped_pedestrian">
        <walk from="817426210#3" to="8646379#1"/>
    </person>
    <person id="ped117" depart="23.30" type="ped_pedestrian">
        <walk from="1185620976#1" to="826360085#1"/>
    </person>
    <person id="ped118" depart="23.50" type="ped_pedestrian">
        <walk from="1305073604#2" to="696756902"/>
    </person>
    <person id="ped119" depart="23.70" type="ped_pedestrian">
        <walk from="825290128" to="34404725#2"/>
    </person>
    <person id="ped120" depart="23.90" type="ped_pedestrian">
        <walk from="396258285#0" to="828329463#1"/>
    </person>
    <person id="ped121" depart="24.10" type="ped_pedestrian">
        <walk from="-822967407" to="815602979#0"/>
    </person>
    <person id="ped122" depart="24.30" type="ped_pedestrian">
        <walk from="99809125#1" to="978894901"/>
    </person>
    <person id="ped123" depart="24.50" type="ped_pedestrian">
        <walk from="-823316168#0" to="1227420628#2"/>
    </person>
    <person id="ped124" depart="24.70" type="ped_pedestrian">
        <walk from="236582634#1" to="8644931"/>
    </person>
    <person id="ped125" depart="24.90" type="ped_pedestrian">
        <walk from="854094246#2" to="850688509#3"/>
    </person>
    <person id="ped126" depart="25.10" type="ped_pedestrian">
        <walk from="658046500#4" to="1098934122#6"/>
    </person>
    <person id="ped127" depart="25.30" type="ped_pedestrian">
        <walk from="836269176#0" to="825494624#1"/>
    </person>
    <person id="ped128" depart="25.50" type="ped_pedestrian">
        <walk from="818163469" to="94590206#3"/>
    </person>
    <person id="ped129" depart="25.69" type="ped_pedestrian">
        <walk from="824375432" to="-1115616604#0"/>
    </person>
    <person id="ped130" depart="25.89" type="ped_pedestrian">
        <walk from="834242963#1" to="34404720"/>
    </person>
    <person id="ped131" depart="26.09" type="ped_pedestrian">
        <walk from="825263830#1" to="8647491#3"/>
    </person>
    <person id="ped132" depart="26.29" type="ped_pedestrian">
        <walk from="-94482761#0" to="-8645086#1"/>
    </person>
    <person id="ped133" depart="26.49" type="ped_pedestrian">
        <walk from="-856200767#1" to="817426314#3"/>
    </person>
    <person id="ped134" depart="26.69" type="ped_pedestrian">
        <walk from="23787059#6" to="817790616#0"/>
    </person>
    <person id="ped135" depart="26.89" type="ped_pedestrian">
        <walk from="826360092" to="1183737266#0"/>
    </person>
    <person id="ped136" depart="27.09" type="ped_pedestrian">
        <walk from="822959759" to="236582622#2"/>
    </person>
    <person id="ped137" depart="27.29" type="ped_pedestrian">
        <walk from="815746547" to="857610830#9"/>
    </person>
    <person id="ped138" depart="27.49" type="ped_pedestrian">
        <walk from="839074125#0" to="-833580410#1"/>
    </person>
    <person id="ped139" depart="27.69" type="ped_pedestrian">
        <walk from="785134087#1" to="23890907#1"/>
    </person>
    <person id="ped140" depart="27.89" type="ped_pedestrian">
        <walk from="-1111328431#1" to="830619417#1"/>
    </person>
    <person id="ped141" depart="28.09" type="ped_pedestrian">
        <walk from="823316152" to="231864532"/>
    </person>
    <person id="ped142" depart="28.28" type="ped_pedestrian">
        <walk from="828329379" to="817426308#1"/>
    </person>
    <person id="ped143" depart="28.48" type="ped_pedestrian">
        <walk from="788015178#2" to="-1115824689"/>
    </person>
    <person id="ped144" depart="28.68" type="ped_pedestrian">
        <walk from="-823996342#12" to="854102067#1"/>
    </person>
    <person id="ped145" depart="28.88" type="ped_pedestrian">
        <walk from="857610829#2" to="817426282#1"/>
    </person>
    <person id="ped146" depart="29.08" type="ped_pedestrian">
        <walk from="836269180#1" to="817666557"/>
    </person>
    <person id="ped147" depart="29.28" type="ped_pedestrian">
        <walk from="1024772957#1" to="-8651325#3"/>
    </person>
    <person id="ped148" depart="29.48" type="ped_pedestrian">
        <walk from="387748573#1" to="857581014#2"/>
    </person>
    <person id="ped149" depart="29.68" type="ped_pedestrian">
        <walk from="832260281#2" to="842963302"/>
    </person>
    <person id="ped150" depart="29.88" type="ped_pedestrian">
        <walk from="857581014#2" to="1220619620"/>
    </person>
    <person id="ped151" depart="30.08" type="ped_pedestrian">
        <walk from="165358921#2" to="-839188536"/>
    </person>
    <person id="ped152" depart="30.28" type="ped_pedestrian">
        <walk from="830619457" to="854343798#2"/>
    </person>
    <person id="ped153" depart="30.48" type="ped_pedestrian">
        <walk from="750361520#0" to="819279845"/>
    </person>
    <person id="ped154" depart="30.67" type="ped_pedestrian">
        <walk from="108235944#4" to="8639923#7"/>
    </person>
    <person id="ped155" depart="30.87" type="ped_pedestrian">
        <walk from="842973147#1" to="944825603#2"/>
    </person>
    <person id="ped156" depart="31.07" type="ped_pedestrian">
        <walk from="833233167#0" to="854094249#2"/>
    </person>
    <person id="ped157" depart="31.27" type="ped_pedestrian">
        <walk from="-172094385#2" to="828329358"/>
    </person>
    <person id="ped158" depart="31.47" type="ped_pedestrian">
        <walk from="478093935" to="8641399#1"/>
    </person>
    <person id="ped159" depart="31.67" type="ped_pedestrian">
        <walk from="832439089" to="842973144#2"/>
    </person>
    <person id="ped160" depart="31.87" type="ped_pedestrian">
        <walk from="833233167#0" to="23786695"/>
    </person>
    <person id="ped161" depart="32.07" type="ped_pedestrian">
        <walk from="831226184#1" to="-85891014#2"/>
    </person>
    <person id="ped162" depart="32.27" type="ped_pedestrian">
        <walk from="846010399#1" to="842963293"/>
    </person>
    <person id="ped163" depart="32.47" type="ped_pedestrian">
        <walk from="1278918936" to="834242958#0"/>
    </person>
    <person id="ped164" depart="32.67" type="ped_pedestrian">
        <walk from="815602998#1" to="383026781#3"/>
    </person>
    <person id="ped165" depart="32.87" type="ped_pedestrian">
        <walk from="832081444#1" to="1288168761#3"/>
    </person>
    <person id="ped166" depart="33.06" type="ped_pedestrian">
        <walk from="-170690237#3" to="1148989905"/>
    </person>
    <person id="ped167" depart="33.26" type="ped_pedestrian">
        <walk from="448449660" to="842973146"/>
    </person>
    <person id="ped168" depart="33.46" type="ped_pedestrian">
        <walk from="941762003#0" to="23890946#7"/>
    </person>
    <person id="ped169" depart="33.66" type="ped_pedestrian">
        <walk from="823476911#0" to="708051313#1"/>
    </person>
    <person id="ped170" depart="33.86" type="ped_pedestrian">
        <walk from="94482765#1" to="817426245#1"/>
    </person>
    <person id="ped171" depart="34.06" type="ped_pedestrian">
        <walk from="8647670#1" to="-8644931"/>
    </person>
    <person id="ped172" depart="34.26" type="ped_pedestrian">
        <walk from="943792798#0" to="1116058175"/>
    </person>
    <person id="ped173" depart="34.46" type="ped_pedestrian">
        <walk from="8866322#1" to="236582645"/>
    </person>
    <person id="ped174" depart="34.66" type="ped_pedestrian">
        <walk from="-862873502#1" to="805583376"/>
    </person>
    <person id="ped175" depart="34.86" type="ped_pedestrian">
        <walk from="817790619#2" to="817361892"/>
    </person>
    <person id="ped176" depart="35.06" type="ped_pedestrian">
        <walk from="696501102" to="817666539#1"/>
    </person>
    <person id="ped177" depart="35.26" type="ped_pedestrian">
        <walk from="172126955#2" to="825626926#1"/>
    </person>
    <person id="ped178" depart="35.46" type="ped_pedestrian">
        <walk from="-104210747#1" to="8638014#1"/>
    </person>
    <person id="ped179" depart="35.65" type="ped_pedestrian">
        <walk from="817426259" to="826360101#2"/>
    </person>
    <person id="ped180" depart="35.85" type="ped_pedestrian">
        <walk from="828329381#1" to="825290121"/>
    </person>
    <person id="ped181" depart="36.05" type="ped_pedestrian">
        <walk from="658046442#0" to="-818474467#1"/>
    </person>
    <person id="ped182" depart="36.25" type="ped_pedestrian">
        <walk from="825263837#2" to="470445666#1"/>
    </person>
    <person id="ped183" depart="36.45" type="ped_pedestrian">
        <walk from="396258220#5" to="839074135"/>
    </person>
    <person id="ped184" depart="36.65" type="ped_pedestrian">
        <walk from="826360110#0" to="34404725#5"/>
    </person>
    <person id="ped185" depart="36.85" type="ped_pedestrian">
        <walk from="396258202#7" to="754473425#0"/>
    </person>
    <person id="ped186" depart="37.05" type="ped_pedestrian">
        <walk from="740022043#3" to="29830311#3"/>
    </person>
    <person id="ped187" depart="37.25" type="ped_pedestrian">
        <walk from="-8651325#2" to="782462320#2"/>
    </person>
    <person id="ped188" depart="37.45" type="ped_pedestrian">
        <walk from="8648049#0" to="825494483#1"/>
    </person>
    <person id="ped189" depart="37.65" type="ped_pedestrian">
        <walk from="857582184" to="818582538"/>
    </person>
    <person id="ped190" depart="37.85" type="ped_pedestrian">
        <walk from="36835949#1" to="817426288#2"/>
    </person>
    <person id="ped191" depart="38.04" type="ped_pedestrian">
        <walk from="-1025410456" to="272972171"/>
    </person>
    <person id="ped192" depart="38.24" type="ped_pedestrian">
        <walk from="801839127#1" to="817666548#1"/>
    </person>
    <person id="ped193" depart="38.44" type="ped_pedestrian">
        <walk from="824394688#1" to="815603028#1"/>
    </person>
    <person id="ped194" depart="38.64" type="ped_pedestrian">
        <walk from="815606390#1" to="857581022#4"/>
    </person>
    <person id="ped195" depart="38.84" type="ped_pedestrian">
        <walk from="832260281#1" to="1115616595#0"/>
    </person>
    <person id="ped196" depart="39.04" type="ped_pedestrian">
        <walk from="-825994973#3" to="817426193#0"/>
    </person>
    <person id="ped197" depart="39.24" type="ped_pedestrian">
        <walk from="822948971#1" to="485001503#0"/>
    </person>
    <person id="ped198" depart="39.44" type="ped_pedestrian">
        <walk from="834242972#1" to="828329461#1"/>
    </person>
    <person id="ped199" depart="39.64" type="ped_pedestrian">
        <walk from="825494456#0" to="1281777361#0"/>
    </person>
    <person id="ped200" depart="39.84" type="ped_pedestrian">
        <walk from="1152675082#1" to="-172094383"/>
    </person>
    <person id="ped201" depart="40.04" type="ped_pedestrian">
        <walk from="1328701118" to="815606400#0"/>
    </person>
    <person id="ped202" depart="40.24" type="ped_pedestrian">
        <walk from="839099511#1" to="-823307650#1"/>
    </person>
    <person id="ped203" depart="40.43" type="ped_pedestrian">
        <walk from="771112863" to="822392247"/>
    </person>
    <person id="ped204" depart="40.63" type="ped_pedestrian">
        <walk from="1148989913" to="825494570#0"/>
    </person>
    <person id="ped205" depart="40.83" type="ped_pedestrian">
        <walk from="816258729" to="1318451129"/>
    </person>
    <person id="ped206" depart="41.03" type="ped_pedestrian">
        <walk from="824408753#1" to="-1113193581#1"/>
    </person>
    <person id="ped207" depart="41.23" type="ped_pedestrian">
        <walk from="828329461#0" to="830619411#0"/>
    </person>
    <person id="ped208" depart="41.43" type="ped_pedestrian">
        <walk from="-856177352#1" to="785134096"/>
    </person>
    <person id="ped209" depart="41.63" type="ped_pedestrian">
        <walk from="1115824688#1" to="8652089#0"/>
    </person>
    <person id="ped210" depart="41.83" type="ped_pedestrian">
        <walk from="817426201#1" to="-564868865"/>
    </person>
    <person id="ped211" depart="42.03" type="ped_pedestrian">
        <walk from="165358919" to="839074137#0"/>
    </person>
    <person id="ped212" depart="42.23" type="ped_pedestrian">
        <walk from="815602970" to="832439081#2"/>
    </person>
    <person id="ped213" depart="42.43" type="ped_pedestrian">
        <walk from="825290069#1" to="94590230#0"/>
    </person>
    <person id="ped214" depart="42.63" type="ped_pedestrian">
        <walk from="817790568" to="8650012#3"/>
    </person>
    <person id="ped215" depart="42.82" type="ped_pedestrian">
        <walk from="856121955" to="818470223#0"/>
    </person>
    <person id="ped216" depart="43.02" type="ped_pedestrian">
        <walk from="826360101#1" to="817025768#0"/>
    </person>
    <person id="ped217" depart="43.22" type="ped_pedestrian">
        <walk from="836269161#0" to="817426288#1"/>
    </person>
    <person id="ped218" depart="43.42" type="ped_pedestrian">
        <walk from="856203839#0" to="828329387#0"/>
    </person>
    <person id="ped219" depart="43.62" type="ped_pedestrian">
        <walk from="150052469#14" to="823316155#2"/>
    </person>
    <person id="ped220" depart="43.82" type="ped_pedestrian">
        <walk from="830121187#1" to="817426206#4"/>
    </person>
    <person id="ped221" depart="44.02" type="ped_pedestrian">
        <walk from="822088232" to="23890870#2"/>
    </person>
    <person id="ped222" depart="44.22" type="ped_pedestrian">
        <walk from="-824207755" to="242998461#3"/>
    </person>
    <person id="ped223" depart="44.42" type="ped_pedestrian">
        <walk from="23787059#2" to="405941852#1"/>
    </person>
    <person id="ped224" depart="44.62" type="ped_pedestrian">
        <walk from="817426265#1" to="-97830869#6"/>
    </person>
    <person id="ped225" depart="44.82" type="ped_pedestrian">
        <walk from="1289691150#1" to="825494560#1"/>
    </person>
    <person id="ped226" depart="45.02" type="ped_pedestrian">
        <walk from="825494641#3" to="-814822804"/>
    </person>
    <person id="ped227" depart="45.22" type="ped_pedestrian">
        <walk from="750567540" to="817426271#1"/>
    </person>
    <person id="ped228" depart="45.41" type="ped_pedestrian">
        <walk from="776291666#1" to="1201503094"/>
    </person>
    <person id="ped229" depart="45.61" type="ped_pedestrian">
        <walk from="782462319#1" to="857610830#5"/>
    </person>
    <person id="ped230" depart="45.81" type="ped_pedestrian">