<?xml version="1.0" encoding="UTF-8"?>

<!-- generated on 2024-11-24 04:52:17 by Eclipse SUMO netconvert Version 1.20.0
<configuration xmlns:xsi="http://www.w3.org/2001/XMLSchema-instance" xsi:noNamespaceSchemaLocation="http://sumo.dlr.de/xsd/netconvertConfiguration.xsd">

    <input>
        <sumo-net-file value="/Users/xfu/bu-courses-repo/cds-ds-340/ds340-project/Version1/2024-11-05-18-42-37/osm.net.xml.gz"/>
    </input>

    <output>
        <plain-output-prefix value="temp_tl_info"/>
        <output.street-names value="true"/>
    </output>

    <processing>
        <geometry.min-radius.fix.railways value="false"/>
        <geometry.max-grade.fix value="false"/>
        <offset.disable-normalization value="true"/>
        <lefthand value="0"/>
    </processing>

    <junctions>
        <no-turnarounds value="true"/>
        <junctions.corner-detail value="5"/>
        <junctions.limit-turn-speed value="5.50"/>
        <rectangular-lane-cut value="0"/>
    </junctions>

    <pedestrian>
        <walkingareas value="1"/>
    </pedestrian>

</configuration>
-->

<edges version="1.20" xmlns:xsi="http://www.w3.org/2001/XMLSchema-instance" xsi:noNamespaceSchemaLocation="http://sumo.dlr.de/xsd/edges_file.xsd">
    <location netOffset="-329014.97,-4690593.46" convBoundary="0.00,0.00,2557.17,1407.45" origBoundary="-71.075956,42.349368,-71.045066,42.361498" projParameter="+proj=utm +zone=19 +ellps=WGS84 +datum=WGS84 +units=m +no_defs"/>

    <edge id="-1000832622#2" from="cluster_61486013_7634061971_7634061973_7634061974" to="cluster_61515339_7633760142_7633760143_7633760144" name="High Street" priority="11" type="cycleway.lane|highway.secondary" numLanes="1" speed="11.18" shape="1762.07,598.81 1759.87,596.21 1716.65,545.26 1711.79,540.15 1706.17,535.05 1699.72,529.83 1693.03,525.40 1668.68,511.54 1644.42,497.56" width="1.25" allow="bicycle">
        <lane index="0">
            <param key="origId" value="1000832622"/>
        </lane>
        <param key="origFrom" value="7634061974"/>
        <param key="origTo" value="7633760142"/>
    </edge>
    <edge id="-1024772957#0" from="7732861504" to="5456502565" priority="1" type="highway.service" numLanes="1" speed="5.56" allow="pedestrian delivery bicycle">
        <lane index="0">
            <param key="origId" value="1024772957"/>
        </lane>
    </edge>
    <edge id="-1024772957#1" from="5456502564" to="7732861504" priority="1" type="highway.service" numLanes="1" speed="5.56" allow="pedestrian delivery bicycle">
        <lane index="0">
            <param key="origId" value="1024772957"/>
        </lane>
    </edge>
    <edge id="-1024772971" from="1146550359" to="4192141946" priority="1" type="highway.footway" numLanes="1" speed="2.78" shape="2170.91,1278.04 2164.91,1273.56 2126.59,1264.72 2105.69,1260.04 2098.11,1258.35" width="2.00" allow="pedestrian bicycle">
        <lane index="0">
            <param key="origId" value="1024772971 419031025 1024772972"/>
        </lane>
    </edge>
    <edge id="-1025410456" from="1769091031" to="2500033246" priority="1" type="highway.footway" numLanes="1" speed="2.78" width="2.00" allow="pedestrian">
        <lane index="0">
            <param key="origId" value="1025410456"/>
        </lane>
    </edge>
    <edge id="-1030057021" from="2931897931" to="cluster_4776915541_61552742_7198262621" name="Federal Street" priority="1" type="highway.footway" numLanes="1" speed="2.78" shape="1667.40,426.03 1664.01,431.19 1660.79,436.98" width="2.00" allow="pedestrian bicycle">
        <lane index="0">
            <param key="origId" value="1030057021 771112858"/>
        </lane>
        <param key="origTo" value="61552742"/>
    </edge>
    <edge id="-1030057025" from="9495481721" to="cluster_1545071815_2381946702_61445356_61552734_#2more" priority="1" type="highway.footway" numLanes="1" speed="2.78" shape="1567.93,438.92 1569.98,448.60" width="2.00" allow="pedestrian bicycle">
        <lane index="0">
            <param key="origId" value="1030057025"/>
        </lane>
        <param key="origTo" value="2381946702"/>
    </edge>
    <edge id="-1030057026" from="cluster_2381946703_4777491314_7675912686" to="9495481722" priority="1" type="highway.footway" numLanes="1" speed="2.78" shape="1560.19,396.29 1563.27,413.62" width="2.00" allow="pedestrian bicycle">
        <lane index="0">
            <param key="origId" value="1030057026"/>
        </lane>
        <param key="origFrom" value="4777491314"/>
    </edge>
    <edge id="-1032011414" from="1818111114" to="cluster_1818111090_1818111106" priority="1" type="highway.footway" numLanes="1" speed="2.78" shape="272.34,1210.70 281.34,1207.68" width="2.00" allow="pedestrian">
        <lane index="0">
            <param key="origId" value="1032011414"/>
        </lane>
        <param key="origTo" value="1818111106"/>
    </edge>
    <edge id="-103553904#1" from="cluster_61425196_61425203_7634061535_7634061536_#2more" to="cluster_61350688_7634061542" name="Kilby Street" priority="3" type="highway.residential" numLanes="1" speed="11.18" shape="1718.45,956.37 1720.45,950.07" width="5.95" disallow="pedestrian tram rail_urban rail rail_electric rail_fast ship container cable_car subway aircraft wheelchair scooter drone">
        <lane index="0">
            <param key="origId" value="103553904"/>
        </lane>
        <param key="origFrom" value="61425203"/>
        <param key="origTo" value="7634061542"/>
    </edge>
    <edge id="-103553906#0" from="7634061543" to="cluster_61425196_61425203_7634061535_7634061536_#2more" name="Kilby Street" priority="3" type="cycleway.lane|highway.residential" numLanes="1" speed="11.18" shape="1717.06,960.80 1718.45,956.37" width="1.25" allow="bicycle">
        <lane index="0">
            <param key="origId" value="103553906"/>
        </lane>
        <param key="origTo" value="61425203"/>
    </edge>
    <edge id="-103553906#1" from="61425231" to="7634061543" name="Kilby Street" priority="3" type="cycleway.lane|highway.residential" numLanes="1" speed="11.18" width="1.25" allow="bicycle">
        <lane index="0">
            <param key="origId" value="103553906"/>
        </lane>
    </edge>
    <edge id="-103553906#2" from="cluster_1195530084_7637468402" to="61425231" name="Kilby Street" priority="3" type="cycleway.lane|highway.residential" numLanes="1" speed="11.18" shape="1706.21,995.07 1712.12,976.59" width="1.25" allow="bicycle">
        <lane index="0">
            <param key="origId" value="103553906"/>
        </lane>
        <param key="origFrom" value="1195530084"/>
    </edge>
    <edge id="-103553906#3" from="61425213" to="cluster_1195530084_7637468402" name="Kilby Street" priority="3" type="cycleway.lane|highway.residential" numLanes="1" speed="11.18" shape="1701.95,1008.94 1706.21,995.07" width="1.25" allow="bicycle">
        <lane index="0">
            <param key="origId" value="103553906"/>
        </lane>
        <param key="origTo" value="1195530084"/>
    </edge>
    <edge id="-103553906#4" from="cluster_4257835055_7630761021_7630761023" to="61425213" name="Kilby Street" priority="3" type="cycleway.lane|highway.residential" numLanes="1" speed="11.18" shape="1678.61,1082.78 1679.62,1079.57 1701.95,1008.94" width="1.25" allow="bicycle">
        <lane index="0">
            <param key="origId" value="103553906"/>
        </lane>
        <param key="origFrom" value="7630761023"/>
    </edge>
    <edge id="-103680391#1" from="cluster_1196976901_7636322337_7636322338" to="cluster_61341614_7637468321_7637468322" name="Bedford Street" priority="3" type="highway.residential" numLanes="1" speed="11.18" shape="1336.67,474.46 1307.69,495.52" width="6.10" disallow="pedestrian tram rail_urban rail rail_electric rail_fast ship container cable_car subway aircraft wheelchair scooter drone">
        <lane index="0">
            <param key="origId" value="103680391"/>
        </lane>
        <param key="origFrom" value="1196976901"/>
        <param key="origTo" value="7637468321"/>
    </edge>
    <edge id="-1037186588" from="cluster_61360827_61512057" to="7574271722" priority="1" type="highway.footway" numLanes="1" speed="2.78" shape="262.93,786.66 261.52,783.91" width="2.00" allow="pedestrian bicycle">
        <lane index="0">
            <param key="origId" value="1037186588"/>
        </lane>
        <param key="origFrom" value="61512057"/>
    </edge>
    <edge id="-1039343430#2" from="7634061927" to="cluster_2401902057_61365039_7634061578_7634061579" name="Devonshire Street" priority="11" type="highway.secondary" numLanes="1" speed="11.18" shape="1555.50,851.52 1555.47,854.71 1555.38,927.50" width="3.00" allow="pedestrian">
        <lane index="0">
            <param key="origId" value="1039343430"/>
        </lane>
        <param key="origTo" value="2401902057"/>
    </edge>
    <edge id="-1039343430#3" from="61340552" to="7634061927" name="Devonshire Street" priority="11" type="highway.secondary" numLanes="1" speed="11.18" shape="1554.02,843.55 1555.04,849.06 1555.50,851.52" width="3.00" allow="pedestrian">
        <lane index="0">
            <param key="origId" value="1039343430"/>
        </lane>
    </edge>
    <edge id="-104205451#0" from="cluster_2501200843_4640381694_5757111988_5757111990_#1more" to="61341287" name="Melrose Street" priority="3" type="highway.residential" numLanes="2" speed="11.18" shape="763.85,80.32 750.81,76.51 742.15,73.83">
        <lane index="0" allow="pedestrian" width="2.00">
            <param key="origId" value="104205451"/>
        </lane>
        <lane index="1" disallow="pedestrian tram rail_urban rail rail_electric rail_fast ship container cable_car subway aircraft wheelchair scooter drone" width="3.00">
            <param key="origId" value="104205451"/>
        </lane>
        <param key="origFrom" value="6543317471"/>
    </edge>
    <edge id="-104210747#1" from="cluster_61350690_7609422111" to="cluster_11958703793_11958703794_11958703795_11958703796_#1more" name="Milk Street" priority="11" type="cycleway.track|highway.secondary" numLanes="2" speed="11.18" shape="1737.54,889.38 1724.85,879.94 1699.96,862.94 1694.45,860.35 1692.18,859.52">
        <lane index="0" allow="pedestrian" width="3.00">
            <param key="origId" value="104210747"/>
        </lane>
        <lane index="1" allow="bicycle" width="1.50">
            <param key="origId" value="104210747"/>
        </lane>
        <param key="origFrom" value="61350690"/>
        <param key="origTo" value="11958703793"/>
    </edge>
    <edge id="-104210747#2" from="cluster_61353031_7609422110_7634061597_7634061881" to="cluster_61350690_7609422111" name="Milk Street" priority="11" type="cycleway.track|highway.secondary" numLanes="2" speed="11.18" shape="1751.78,901.17 1737.54,889.38">
        <lane index="0" allow="pedestrian" width="3.00">
            <param key="origId" value="104210747"/>
        </lane>
        <lane index="1" allow="bicycle" width="1.50">
            <param key="origId" value="104210747"/>
        </lane>
        <param key="origFrom" value="7634061881"/>
        <param key="origTo" value="61350690"/>
    </edge>
    <edge id="-104210747#5" from="cluster_61516885_7634061610_7634061611_7634061612_#1more" to="cluster_61353031_7609422110_7634061597_7634061881" name="Milk Street" priority="11" type="cycleway.track|highway.secondary" numLanes="2" speed="11.18" shape="1790.72,936.94 1760.77,909.19">
        <lane index="0" allow="pedestrian" width="3.00">
            <param key="origId" value="104210747"/>
        </lane>
        <lane index="1" allow="bicycle" width="1.50">
            <param key="origId" value="104210747"/>
        </lane>
        <param key="origFrom" value="7634061612"/>
        <param key="origTo" value="7634061597"/>
    </edge>
    <edge id="-104210747#8" from="cluster_61496639_61496641_7634061485_7634061486_#3more" to="cluster_61516885_7634061610_7634061611_7634061612_#1more" name="Milk Street" priority="11" type="cycleway.track|highway.secondary" numLanes="2" speed="11.18" shape="1825.38,967.73 1798.46,943.99">
        <lane index="0" allow="pedestrian" width="3.00">
            <param key="origId" value="104210747"/>
        </lane>
        <lane index="1" allow="bicycle" width="1.50">
            <param key="origId" value="104210747"/>
        </lane>
        <param key="origFrom" value="7634061485"/>
        <param key="origTo" value="7634061611"/>
    </edge>
    <edge id="-1042974152" from="9600024810" to="6162811409" priority="1" type="highway.footway" numLanes="1" speed="2.78" shape="1096.65,1379.33 1095.40,1377.44 1094.91,1376.84 1094.36,1376.04 1094.15,1375.52 1094.38,1369.35" width="2.00" allow="pedestrian bicycle">
        <lane index="0">
            <param key="origId" value="1042974152"/>
        </lane>
    </edge>
    <edge id="-1061213100" from="61367637" to="9155632155" priority="1" type="highway.cycleway" numLanes="1" speed="5.56" shape="2006.11,77.97 2004.68,73.25 2003.02,67.88 1999.63,62.60" width="2.25" allow="pedestrian bicycle">
        <lane index="0">
            <param key="origId" value="1061213100 990899883"/>
        </lane>
    </edge>
    <edge id="-1087035552#0" from="7644685941" to="cluster_1097411760_11646605550_11895571489_11895571497_#9more" name="Boston HarborWalk" priority="1" type="highway.footway" numLanes="1" speed="2.78" shape="1967.98,377.17 1963.83,370.67 1959.14,367.37" width="2.00" allow="pedestrian bicycle">
        <lane index="0">
            <param key="origId" value="1087035552"/>
        </lane>
        <param key="origTo" value="2965099573"/>
    </edge>
    <edge id="-1087035552#1" from="7644685930" to="7644685941" name="Boston HarborWalk" priority="1" type="highway.footway" numLanes="1" speed="2.78" width="2.00" allow="pedestrian bicycle">
        <lane index="0">
            <param key="origId" value="1087035552"/>
        </lane>
    </edge>
    <edge id="-1087035552#2" from="1097411365" to="7644685930" name="Boston HarborWalk" priority="1" type="highway.footway" numLanes="1" speed="2.78" width="2.00" allow="pedestrian bicycle">
        <lane index="0">
            <param key="origId" value="1087035552"/>
        </lane>
    </edge>
    <edge id="-1087035558" from="7637468467" to="7732861390" priority="1" type="highway.footway" numLanes="1" speed="2.78" shape="2279.84,446.84 2289.78,463.13 2294.77,471.31 2314.29,503.28" width="2.00" allow="pedestrian bicycle">
        <lane index="0">
            <param key="origId" value="1087035558"/>
        </lane>
    </edge>
    <edge id="-1087041477" from="cluster_1132438765_1132438796_1132438843_2401564479_#1more" to="7574271719" priority="1" type="highway.footway" numLanes="1" speed="2.78" shape="279.87,731.39 271.02,757.13" width="1.80" allow="pedestrian bicycle">
        <lane index="0">
            <param key="origId" value="1087041477"/>
        </lane>
        <param key="origFrom" value="1132438765"/>
    </edge>
    <edge id="-1087041478" from="1132438697" to="cluster_1132438765_1132438796_1132438843_2401564479_#1more" priority="1" type="highway.footway" numLanes="1" speed="2.78" shape="298.77,737.83 299.23,736.65 301.88,732.20" width="2.00" allow="pedestrian bicycle">
        <lane index="0">
            <param key="origId" value="1087041478"/>
        </lane>
        <param key="origTo" value="1132438843"/>
    </edge>
    <edge id="-1089085520#1" from="cluster_2935677397_5991434560_61340719_7771798249" to="cluster_11895571495_11895571503_1325873756_7771798229_#1more" name="Congress Street" priority="11" type="cycleway.lane|highway.secondary" numLanes="3" speed="13.89" shape="2155.56,217.89 2132.31,239.25 2129.19,242.09">
        <lane index="0" allow="bicycle" width="1.25">
            <param key="origId" value="1089085520"/>
        </lane>
        <lane index="1" disallow="pedestrian bicycle tram rail_urban rail rail_electric rail_fast ship container cable_car subway aircraft wheelchair scooter drone" width="5.72">
            <param key="origId" value="1089085520"/>
        </lane>
        <lane index="2" disallow="pedestrian bicycle tram rail_urban rail rail_electric rail_fast ship container cable_car subway aircraft wheelchair scooter drone" width="5.72">
            <param key="origId" value="1089085520"/>
        </lane>
        <param key="origFrom" value="61340719"/>
        <param key="origTo" value="1325873756"/>
    </edge>
    <edge id="-1089085521#0" from="7732861396" to="cluster_61428091_7732861399" name="Northern Avenue" priority="10" type="cycleway.lane|highway.tertiary" numLanes="3" speed="13.89" shape="2388.43,467.57 2403.44,457.59">
        <lane index="0" allow="bicycle" width="1.25">
            <param key="origId" value="1089085521"/>
        </lane>
        <lane index="1" disallow="pedestrian bicycle tram rail_urban rail rail_electric rail_fast ship container cable_car subway aircraft wheelchair scooter drone" width="7.62">
            <param key="origId" value="1089085521"/>
        </lane>
        <lane index="2" disallow="pedestrian bicycle tram rail_urban rail rail_electric rail_fast ship container cable_car subway aircraft wheelchair scooter drone" width="7.62">
            <param key="origId" value="1089085521"/>
        </lane>
        <param key="origTo" value="61428091"/>
    </edge>
    <edge id="-1089085521#1" from="3856599073" to="7732861396" name="Northern Avenue" priority="10" type="cycleway.lane|highway.tertiary" numLanes="3" speed="13.89">
        <lane index="0" allow="bicycle" width="1.25">
            <param key="origId" value="1089085521"/>
        </lane>
        <lane index="1" disallow="pedestrian bicycle tram rail_urban rail rail_electric rail_fast ship container cable_car subway aircraft wheelchair scooter drone" width="7.62">
            <param key="origId" value="1089085521"/>
        </lane>
        <lane index="2" disallow="pedestrian bicycle tram rail_urban rail rail_electric rail_fast ship container cable_car subway aircraft wheelchair scooter drone" width="7.62">
            <param key="origId" value="1089085521"/>
        </lane>
    </edge>
    <edge id="-1089085521#2" from="cluster_61493601_7732861392_7732861393" to="3856599073" name="Northern Avenue" priority="10" type="cycleway.lane|highway.tertiary" numLanes="3" speed="13.89" shape="2327.77,507.88 2337.39,501.48">
        <lane index="0" allow="bicycle" width="1.25">
            <param key="origId" value="1089085521"/>
        </lane>
        <lane index="1" disallow="pedestrian bicycle tram rail_urban rail rail_electric rail_fast ship container cable_car subway aircraft wheelchair scooter drone" width="7.62">
            <param key="origId" value="1089085521"/>
        </lane>
        <lane index="2" disallow="pedestrian bicycle tram rail_urban rail rail_electric rail_fast ship container cable_car subway aircraft wheelchair scooter drone" width="7.62">
            <param key="origId" value="1089085521"/>
        </lane>
        <param key="origFrom" value="61493601"/>
    </edge>
    <edge id="-1089092083" from="cluster_10767399412_9977217875" to="61371377" name="Boylston Street" priority="12" type="cycleway.track|highway.primary" numLanes="1" speed="11.18" shape="698.52,426.59 697.83,422.60 696.66,418.85 692.91,412.35" width="1.50" allow="bicycle">
        <lane index="0">
            <param key="origId" value="1089092083"/>
        </lane>
        <param key="origFrom" value="9977217875"/>
        <param key="ref" value="MA 2"/>
    </edge>
    <edge id="-1096242208#0" from="1038884878" to="cluster_1038884882_61341689" name="Boylston Street" priority="12" type="cycleway.track|highway.primary" numLanes="1" speed="11.18" shape="954.71,369.43 946.50,371.75" width="1.50" allow="bicycle">
        <lane index="0">
            <param key="origId" value="1096242208"/>
        </lane>
        <param key="origTo" value="61341689"/>
    </edge>
    <edge id="-1096242208#1" from="10039013799" to="1038884878" name="Boylston Street" priority="12" type="cycleway.track|highway.primary" numLanes="1" speed="11.18" shape="968.80,367.26 966.13,367.53 960.74,368.29 954.71,369.43" width="1.50" allow="bicycle">
        <lane index="0">
            <param key="origId" value="1096242208"/>
        </lane>
    </edge>
    <edge id="-1096242209#1" from="7636322210" to="10039013800" name="Boylston Street" priority="12" type="cycleway.track|highway.primary" numLanes="1" speed="11.18" shape="1098.07,368.58 1096.04,368.36 1094.36,368.18 1055.67,364.06" width="1.50" allow="bicycle">
        <lane index="0">
            <param key="origId" value="1096242209"/>
        </lane>
    </edge>
    <edge id="-1096242209#2" from="cluster_61354255_7636322208_7636322209" to="7636322210" name="Boylston Street" priority="12" type="cycleway.track|highway.primary" numLanes="1" speed="11.18" shape="1108.39,370.08 1102.22,369.19 1098.07,368.58" width="1.50" allow="bicycle">
        <lane index="0">
            <param key="origId" value="1096242209"/>
        </lane>
        <param key="origFrom" value="61354255"/>
    </edge>
    <edge id="-1096316166" from="1146550359" to="10039599434" name="East Boston Ferry" priority="2" type="route.ferry" numLanes="1" speed="10.00" shape="2170.91,1278.04 2174.25,1302.72 2177.51,1306.53 2183.46,1309.28 2318.74,1338.48" width="5.00" allow="ship">
        <lane index="0">
            <param key="origId" value="1096316166"/>
        </lane>
    </edge>
    <edge id="-1098934121#0" from="cluster_1411414645_61476915" to="8733135256" name="Old Atlantic Avenue" priority="4" type="highway.unclassified" numLanes="1" speed="11.18" shape="2091.80,1100.36 2094.49,1081.30 2094.73,1079.43 2094.82,1077.89 2094.87,1076.66 2094.75,1075.28" disallow="pedestrian tram rail_urban rail rail_electric rail_fast ship container cable_car subway aircraft wheelchair scooter drone">
        <lane index="0">
            <param key="origId" value="1098934121"/>
        </lane>
        <param key="origFrom" value="61476915"/>
    </edge>
    <edge id="-1098934123#0" from="2934845818" to="cluster_5599241965_5599245068_61342394" name="Atlantic Avenue" priority="12" type="highway.primary" numLanes="1" speed="11.18" shape="1562.07,54.98 1559.75,50.02 1557.53,46.10 1555.12,42.30" width="3.00" allow="pedestrian">
        <lane index="0">
            <param key="origId" value="1098934123"/>
        </lane>
        <param key="origTo" value="61342394"/>
    </edge>
    <edge id="-1098934123#1" from="1534948624" to="2934845818" name="Atlantic Avenue" priority="12" type="highway.primary" numLanes="1" speed="11.18" width="3.00" allow="pedestrian">
        <lane index="0">
            <param key="origId" value="1098934123"/>
        </lane>
    </edge>
    <edge id="-1108965708#1" from="cluster_5599241952_5599241968_5599241984_5599241985_#1more" to="cluster_5599241956_5599241957_5599241981_5599241982_#1more" name="Arlington Street" priority="12" type="cycleway.track|highway.primary" numLanes="1" speed="11.18" shape="493.99,150.68 493.16,153.81 487.08,176.72 472.39,232.10" width="1.50" allow="bicycle">
        <lane index="0">
            <param key="origId" value="1108965708 1108965708 846620949"/>
        </lane>
        <param key="origFrom" value="5599241985"/>
        <param key="origTo" value="5599241981"/>
    </edge>
    <edge id="-1111328431#1" from="10168435000" to="cluster_10168434999_7814532121" priority="1" type="highway.service" numLanes="1" speed="5.56" shape="953.26,1372.98 953.67,1367.55" allow="pedestrian delivery bicycle">
        <lane index="0">
            <param key="origId" value="1111328431"/>
        </lane>
        <param key="origTo" value="7814532121"/>
    </edge>
    <edge id="-1111720933" from="10170947613" to="10170947611" priority="1" type="highway.service" numLanes="1" speed="5.56" shape="2454.24,343.45 2490.02,320.71 2524.40,377.24" allow="pedestrian delivery bicycle">
        <lane index="0">
            <param key="origId" value="1111720933"/>
        </lane>
    </edge>
    <edge id="-1111965193" from="10173062770" to="cluster_10173062769_61510836" priority="1" type="highway.service" numLanes="1" speed="5.56" shape="1656.44,1349.66 1660.05,1344.02 1664.89,1336.46 1666.06,1334.64" allow="pedestrian delivery bicycle">
        <lane index="0">
            <param key="origId" value="1111965193"/>
        </lane>
        <param key="origTo" value="10173062769"/>
    </edge>
    <edge id="-1112445421" from="1146552076" to="10177807990" name="Boston Long Wharf - Provincetown" priority="2" type="route.ferry" numLanes="1" speed="10.00" shape="2126.73,1127.48 2142.88,1125.61 2365.24,1164.94 2531.77,1177.53" width="5.00" allow="ship">
        <lane index="0">
            <param key="origId" value="1112445421"/>
        </lane>
    </edge>
    <edge id="-1112835159#1" from="10181879377" to="cluster_10181879376_10181879380" priority="1" type="highway.path" numLanes="1" speed="5.56" shape="1348.58,1257.54 1386.23,1243.22" width="2.00" allow="pedestrian bicycle">
        <lane index="0">
            <param key="origId" value="1112835159"/>
        </lane>
        <param key="origTo" value="10181879380"/>
    </edge>
    <edge id="-1112835160#1" from="10181879378" to="cluster_10202926969_7335431248" priority="1" type="highway.path" numLanes="1" speed="5.56" shape="1386.35,1201.76 1390.90,1197.82" width="2.00" allow="pedestrian bicycle">
        <lane index="0">
            <param key="origId" value="1112835160"/>
        </lane>
        <param key="origTo" value="10202926969"/>
    </edge>
    <edge id="-1112835160#2" from="cluster_10181879376_10181879380" to="10181879378" priority="1" type="highway.path" numLanes="1" speed="5.56" shape="1386.23,1243.22 1383.93,1217.38 1386.35,1201.76" width="2.00" allow="pedestrian bicycle">
        <lane index="0">
            <param key="origId" value="1112835160"/>
        </lane>
        <param key="origFrom" value="10181879380"/>
    </edge>
    <edge id="-1112835160#3" from="cluster_10181879367_11823068772" to="cluster_10181879376_10181879380" priority="1" type="highway.path" numLanes="1" speed="5.56" shape="1394.74,1262.44 1390.32,1252.25 1386.23,1243.22" width="2.00" allow="pedestrian bicycle">
        <lane index="0">
            <param key="origId" value="1112835160"/>
        </lane>
        <param key="origFrom" value="11823068772"/>
        <param key="origTo" value="10181879380"/>
    </edge>
    <edge id="-1112835160#4" from="10181879394" to="cluster_10181879367_11823068772" priority="1" type="highway.path" numLanes="1" speed="5.56" shape="1408.38,1277.66 1404.82,1273.96 1394.74,1262.44" width="2.00" allow="pedestrian bicycle">
        <lane index="0">
            <param key="origId" value="1112835160"/>
        </lane>
        <param key="origTo" value="11823068772"/>
    </edge>
    <edge id="-1112835160#5" from="10202945934" to="10181879394" priority="1" type="highway.path" numLanes="1" speed="5.56" shape="1433.43,1296.59 1428.71,1294.43 1416.86,1286.47 1408.38,1277.66" width="2.00" allow="pedestrian bicycle">
        <lane index="0">
            <param key="origId" value="1112835160"/>
        </lane>
    </edge>
    <edge id="-1112835160#6" from="10202926964" to="10202945934" priority="1" type="highway.path" numLanes="1" speed="5.56" shape="1458.52,1303.70 1441.39,1299.86 1433.43,1296.59" width="2.00" allow="pedestrian bicycle">
        <lane index="0">
            <param key="origId" value="1112835160"/>
        </lane>
    </edge>
    <edge id="-1112835160#7" from="10202946008" to="10202926964" priority="1" type="highway.path" numLanes="1" speed="5.56" shape="1509.63,1317.35 1503.93,1313.51 1497.32,1311.84 1471.94,1306.72 1458.52,1303.70" width="2.00" allow="pedestrian bicycle">
        <lane index="0">
            <param key="origId" value="1112835160"/>
        </lane>
    </edge>
    <edge id="-1112835160#8" from="cluster_10184692908_7335431269" to="10202946008" priority="1" type="highway.path" numLanes="1" speed="5.56" shape="1528.68,1355.24 1527.75,1349.48 1526.92,1343.41 1523.66,1333.60 1519.03,1325.35 1511.74,1318.91 1509.63,1317.35" width="2.00" allow="pedestrian bicycle">
        <lane index="0">
            <param key="origId" value="1112835160"/>
        </lane>
        <param key="origFrom" value="10184692908"/>
    </edge>
    <edge id="-1112835161#0" from="10181879396" to="10181879394" priority="1" type="highway.path" numLanes="1" speed="5.56" width="2.00" allow="pedestrian bicycle">
        <lane index="0">
            <param key="origId" value="1112835161"/>
        </lane>
    </edge>
    <edge id="-1112835161#1" from="10181879395" to="10181879396" priority="1" type="highway.path" numLanes="1" speed="5.56" width="2.00" allow="pedestrian bicycle">
        <lane index="0">
            <param key="origId" value="1112835161"/>
        </lane>
    </edge>
    <edge id="-1112835163" from="10181879397" to="10181879396" priority="1" type="highway.path" numLanes="1" speed="5.56" width="2.00" allow="pedestrian bicycle">
        <lane index="0">
            <param key="origId" value="1112835163"/>
        </lane>
    </edge>
    <edge id="-1113193581#1" from="10184692910" to="cluster_10184692911_10202945997" priority="1" type="highway.path" numLanes="1" speed="5.56" shape="1516.30,1353.49 1518.71,1353.72" width="2.00" allow="pedestrian bicycle">
        <lane index="0">
            <param key="origId" value="1113193581"/>
        </lane>
        <param key="origTo" value="10202945997"/>
    </edge>
    <edge id="-1115273723#1" from="cluster_10199995568_10202945973_10202945978" to="7367201743" priority="1" type="highway.path" numLanes="1" speed="5.56" shape="1479.32,1341.18 1466.69,1359.16 1462.70,1364.83" width="2.00" allow="pedestrian bicycle">
        <lane index="0">
            <param key="origId" value="1115273723"/>
        </lane>
        <param key="origFrom" value="10199995568"/>
    </edge>
    <edge id="-1115273724" from="10199995571" to="10199995570" priority="1" type="highway.path" numLanes="1" speed="5.56" width="2.00" allow="pedestrian bicycle">