<?xml version="1.0" encoding="UTF-8"?>

<!-- generated on 2024-11-24 04:52:17 by Eclipse SUMO netconvert Version 1.20.0
<configuration xmlns:xsi="http://www.w3.org/2001/XMLSchema-instance" xsi:noNamespaceSchemaLocation="http://sumo.dlr.de/xsd/netconvertConfiguration.xsd">

    <input>
        <sumo-net-file value="/Users/xfu/bu-courses-repo/cds-ds-340/ds340-project/Version1/2024-11-05-18-42-37/osm.net.xml.gz"/>
    </input>

    <output>
        <plain-output-prefix value="temp_tl_info"/>
        <output.street-names value="true"/>
    </output>

    <processing>
        <geometry.min-radius.fix.railways value="false"/>
        <geometry.max-grade.fix value="false"/>
        <offset.disable-normalization value="true"/>
        <lefthand value="0"/>
    </processing>

    <junctions>
        <no-turnarounds value="true"/>
        <junctions.corner-detail value="5"/>
        <junctions.limit-turn-speed value="5.50"/>
        <rectangular-lane-cut value="0"/>
    </junctions>

    <pedestrian>
        <walkingareas value="1"/>
    </pedestrian>

</configuration>
-->

<nodes version="1.20" xmlns:xsi="http://www.w3.org/2001/XMLSchema-instance" xsi:noNamespaceSchemaLocation="http://sumo.dlr.de/xsd/nodes_file.xsd">
    <location netOffset="-329014.97,-4690593.46" convBoundary="0.00,0.00,2557.17,1407.45" origBoundary="-71.075956,42.349368,-71.045066,42.361498" projParameter="+proj=utm +zone=19 +ellps=WGS84 +datum=WGS84 +units=m +no_defs"/>

    <node id="10011160182" x="736.61" y="393.90" type="priority"/>
    <node id="10039013799" x="968.80" y="367.26" type="right_before_left"/>
    <node id="10039013800" x="1055.67" y="364.06" type="right_before_left"/>
    <node id="10039599434" x="2318.74" y="1338.48" type="unregulated"/>
    <node id="10039599435" x="2314.40" y="1340.83" type="unregulated"/>
    <node id="10064272564" x="1972.31" y="1131.69" type="dead_end"/>
    <node id="10064272565" x="1979.92" y="1129.23" type="dead_end"/>
    <node id="10064272610" x="2014.25" y="1070.54" type="dead_end"/>
    <node id="10064272613" x="2009.53" y="1061.16" type="dead_end"/>
    <node id="10064272615" x="2007.33" y="1058.15" type="dead_end"/>
    <node id="10064272616" x="2005.04" y="1068.62" type="dead_end"/>
    <node id="10064273683" x="2007.21" y="1058.62" type="dead_end"/>
    <node id="10064307817" x="2006.94" y="1059.94" type="dead_end"/>
    <node id="10064307818" x="2005.84" y="1065.00" type="dead_end"/>
    <node id="10064307819" x="2005.78" y="1065.28" type="dead_end"/>
    <node id="10064307820" x="2006.59" y="1061.58" type="dead_end"/>
    <node id="10064307845" x="1988.15" y="1090.34" type="dead_end"/>
    <node id="10064307847" x="1976.10" y="1128.46" type="dead_end"/>
    <node id="10158217976" x="18.78" y="297.05" type="dead_end"/>
    <node id="10168435000" x="953.26" y="1372.98" type="priority"/>
    <node id="10170947611" x="2524.40" y="377.24" type="priority"/>
    <node id="10170947613" x="2454.24" y="343.45" type="priority"/>
    <node id="10173062770" x="1656.44" y="1349.66" type="priority"/>
    <node id="10175384398" x="2405.69" y="1343.62" type="unregulated"/>
    <node id="10175384407" x="2409.22" y="1333.19" type="unregulated"/>
    <node id="10175384413" x="2471.23" y="1347.44" type="unregulated"/>
    <node id="10175384529" x="2435.61" y="744.58" type="unregulated"/>
    <node id="10175384530" x="2293.31" y="686.37" type="unregulated"/>
    <node id="10175384558" x="2407.46" y="1338.41" type="unregulated"/>
    <node id="10177807990" x="2531.77" y="1177.53" type="unregulated"/>
    <node id="10181879377" x="1348.58" y="1257.54" type="right_before_left"/>
    <node id="10181879378" x="1386.35" y="1201.76" type="right_before_left"/>
    <node id="10181879394" x="1408.38" y="1277.66" type="right_before_left"/>
    <node id="10181879395" x="1378.30" y="1304.68" type="priority"/>
    <node id="10181879396" x="1391.12" y="1293.03" type="right_before_left"/>
    <node id="10181879397" x="1385.67" y="1286.99" type="priority"/>
    <node id="10184692910" x="1516.30" y="1353.49" type="priority"/>
    <node id="10199995570" x="1402.97" y="1326.90" type="priority"/>
    <node id="10199995571" x="1405.22" y="1323.02" type="priority"/>
    <node id="10199995580" x="1373.44" y="1309.32" type="dead_end"/>
    <node id="10202926964" x="1458.52" y="1303.70" type="right_before_left"/>
    <node id="10202926965" x="1360.19" y="1264.35" type="priority"/>
    <node id="10202926966" x="1334.29" y="1249.18" type="priority"/>
    <node id="10202926967" x="1450.39" y="1237.58" type="right_before_left"/>
    <node id="10202926968" x="1440.39" y="1224.13" type="priority"/>
    <node id="10202926971" x="1406.27" y="1208.27" type="priority"/>
    <node id="10202926972" x="1407.55" y="1209.11" type="priority"/>
    <node id="10202926973" x="1410.74" y="1211.27" type="priority"/>
    <node id="10202926974" x="1412.26" y="1212.28" type="priority"/>
    <node id="10202926988" x="1500.26" y="1352.23" type="priority"/>
    <node id="10202926989" x="1504.24" y="1352.55" type="priority"/>
    <node id="10202945934" x="1433.43" y="1296.59" type="right_before_left"/>
    <node id="10202945935" x="1429.47" y="1305.70" type="priority"/>
    <node id="10202945949" x="1453.40" y="1323.48" type="priority"/>
    <node id="10202945972" x="1487.50" y="1338.74" type="right_before_left"/>
    <node id="10202945975" x="1502.30" y="1352.39" type="right_before_left"/>
    <node id="10202945976" x="1478.29" y="1332.31" type="right_before_left"/>
    <node id="10202945981" x="1493.14" y="1367.88" type="priority"/>
    <node id="10202946007" x="1504.91" y="1328.57" type="right_before_left"/>
    <node id="10202946008" x="1509.63" y="1317.35" type="right_before_left"/>
    <node id="10202946009" x="1541.07" y="1318.09" type="dead_end"/>
    <node id="10202946010" x="1516.04" y="1315.51" type="priority"/>
    <node id="10210610659" x="2029.37" y="964.89" type="dead_end"/>
    <node id="10220439536" x="303.88" y="728.40" type="dead_end"/>
    <node id="10234637190" x="939.97" y="593.21" type="dead_end"/>
    <node id="10234679803" x="1028.51" y="284.85" type="dead_end"/>
    <node id="10242248849" x="1497.42" y="432.92" type="right_before_left"/>
    <node id="10244862649" x="925.03" y="274.34" type="right_before_left"/>
    <node id="10248358861" x="2252.86" y="440.64" type="right_before_left"/>
    <node id="10248389222" x="2304.64" y="470.10" type="right_before_left"/>
    <node id="10255490686" x="963.62" y="446.35" type="priority"/>
    <node id="10258397316" x="1556.88" y="1063.26" type="dead_end"/>
    <node id="10258397321" x="1415.32" y="1109.16" type="priority"/>
    <node id="10258413459" x="1564.06" y="1057.52" type="dead_end"/>
    <node id="10261676876" x="1525.35" y="1072.20" type="dead_end"/>
    <node id="10261676880" x="1590.20" y="1076.18" type="dead_end"/>
    <node id="1038884878" x="954.71" y="369.43" type="priority"/>
    <node id="1038913937" x="546.01" y="795.44" type="traffic_light" tl="1038913937" tlType="actuated"/>
    <node id="1038913939" x="312.11" y="707.55" type="right_before_left"/>
    <node id="1038934420" x="99.65" y="749.47" type="dead_end"/>
    <node id="1040473771" x="38.79" y="878.88" type="priority"/>
    <node id="10552518543" x="972.67" y="667.54" type="dead_end"/>
    <node id="10552518551" x="974.84" y="646.24" type="dead_end"/>
    <node id="10552518557" x="957.56" y="659.03" type="dead_end"/>
    <node id="10552518562" x="995.37" y="651.72" type="dead_end"/>
    <node id="10560888042" x="972.08" y="670.12" type="dead_end"/>
    <node id="10560888054" x="956.24" y="651.40" type="dead_end"/>
    <node id="10570966247" x="980.78" y="648.71" type="dead_end"/>
    <node id="10574600399" x="798.25" y="733.95" type="dead_end"/>
    <node id="10574600400" x="799.84" y="726.64" type="dead_end"/>
    <node id="10574600401" x="787.33" y="714.89" type="dead_end"/>
    <node id="10574600402" x="794.21" y="716.98" type="dead_end"/>
    <node id="10574600403" x="806.54" y="704.09" type="dead_end"/>
    <node id="10574600404" x="804.41" y="711.47" type="dead_end"/>
    <node id="10574600405" x="809.53" y="721.52" type="dead_end"/>
    <node id="10680592184" x="1642.35" y="1083.82" type="right_before_left"/>
    <node id="10721197923" x="2044.55" y="815.69" type="dead_end"/>
    <node id="10721197924" x="2083.71" y="815.03" type="dead_end"/>
    <node id="10721197925" x="2083.61" y="810.95" type="dead_end"/>
    <node id="10721197926" x="2063.85" y="781.04" type="dead_end"/>
    <node id="10721197944" x="2061.68" y="774.13" type="dead_end"/>
    <node id="10721197957" x="2064.43" y="799.20" type="dead_end"/>
    <node id="10723666345" x="1918.64" y="738.74" type="dead_end"/>
    <node id="10723666346" x="1901.83" y="753.62" type="dead_end"/>
    <node id="10723666347" x="1899.31" y="763.37" type="dead_end"/>
    <node id="10723720294" x="2013.51" y="738.80" type="priority"/>
    <node id="10723720295" x="2022.31" y="735.74" type="priority"/>
    <node id="10723720296" x="2015.14" y="738.24" type="priority"/>
    <node id="10723720297" x="2010.07" y="727.90" type="priority"/>
    <node id="10723720298" x="2018.58" y="724.77" type="priority"/>
    <node id="10723720299" x="2011.09" y="727.53" type="priority"/>
    <node id="10749327413" x="2139.76" y="260.92" type="dead_end"/>
    <node id="10759615345" x="2128.68" y="284.79" type="right_before_left"/>
    <node id="10767385199" x="324.90" y="645.64" type="dead_end"/>
    <node id="10767385200" x="323.67" y="643.19" type="dead_end"/>
    <node id="10808069954" x="2540.42" y="33.15" type="dead_end"/>
    <node id="10924162832" x="1070.36" y="669.38" type="right_before_left"/>
    <node id="10924175595" x="458.38" y="334.24" type="priority"/>
    <node id="10963939387" x="1709.65" y="547.65" type="dead_end"/>
    <node id="10963939388" x="1699.91" y="558.32" type="dead_end"/>
    <node id="10963939389" x="1640.49" y="576.19" type="dead_end"/>
    <node id="1097411159" x="2171.43" y="931.09" type="right_before_left"/>
    <node id="1097411161" x="2148.62" y="877.96" type="priority"/>
    <node id="1097411198" x="2402.75" y="592.32" type="right_before_left"/>
    <node id="1097411236" x="2287.88" y="1188.68" type="dead_end"/>
    <node id="1097411256" x="2170.00" y="1045.94" type="right_before_left"/>
    <node id="1097411258" x="2450.16" y="621.77" type="right_before_left"/>
    <node id="1097411275" x="2052.78" y="500.93" type="dead_end"/>
    <node id="1097411294" x="2152.21" y="847.62" type="dead_end"/>
    <node id="1097411295" x="2554.42" y="633.94" type="priority"/>
    <node id="1097411310" x="2186.98" y="1073.01" type="dead_end"/>
    <node id="1097411333" x="2180.51" y="887.66" type="priority"/>
    <node id="1097411340" x="2150.85" y="798.68" type="right_before_left"/>
    <node id="1097411359" x="2157.69" y="798.08" type="right_before_left"/>
    <node id="1097411365" x="1997.02" y="417.92" type="right_before_left"/>
    <node id="1097411403" x="2100.23" y="1238.56" type="dead_end"/>
    <node id="1097411411" x="2136.47" y="1036.86" type="right_before_left"/>
    <node id="1097411449" x="2170.17" y="354.61" type="right_before_left"/>
    <node id="1097411477" x="2164.17" y="797.14" type="right_before_left"/>
    <node id="1097411483" x="2025.25" y="896.40" type="dead_end"/>
    <node id="1097411486" x="2168.92" y="1113.57" type="right_before_left"/>
    <node id="1097411499" x="2174.78" y="920.33" type="priority"/>
    <node id="1097411509" x="2158.82" y="1074.42" type="right_before_left"/>
    <node id="1097411630" x="2472.00" y="596.27" type="right_before_left"/>
    <node id="1097411677" x="2171.11" y="1070.60" type="right_before_left"/>
    <node id="1097411687" x="2110.95" y="1103.81" type="dead_end"/>
    <node id="1097411692" x="2166.81" y="848.39" type="dead_end"/>
    <node id="1097411710" x="2482.14" y="611.00" type="right_before_left"/>
    <node id="1097411712" x="2117.43" y="1071.46" type="right_before_left"/>
    <node id="1097411714" x="2147.73" y="1247.10" type="dead_end"/>
    <node id="1097411723" x="2161.84" y="715.18" type="priority"/>
    <node id="1097411762" x="2419.28" y="609.72" type="right_before_left"/>
    <node id="1097411772" x="2033.33" y="859.08" type="dead_end"/>
    <node id="1097411773" x="2146.17" y="989.72" type="dead_end"/>
    <node id="1097411781" x="1983.10" y="577.84" type="priority"/>
    <node id="1097411814" x="2184.21" y="1091.65" type="dead_end"/>
    <node id="1097411822" x="2448.90" y="591.60" type="right_before_left"/>
    <node id="1097411824" x="2139.14" y="953.25" type="right_before_left"/>
    <node id="1097411851" x="2196.35" y="953.28" type="dead_end"/>
    <node id="1097411855" x="2151.37" y="751.92" type="right_before_left"/>
    <node id="1097411869" x="2105.55" y="1152.41" type="right_before_left"/>
    <node id="1097411871" x="2098.01" y="1329.55" type="dead_end"/>
    <node id="1097411903" x="2161.55" y="1164.24" type="priority"/>
    <node id="1097411913" x="2135.59" y="971.32" type="priority"/>
    <node id="1097411937" x="2144.67" y="753.25" type="right_before_left"/>
    <node id="1097411968" x="2177.41" y="745.19" type="priority"/>
    <node id="1097411975" x="2072.82" y="542.08" type="dead_end"/>
    <node id="1097411979" x="2427.81" y="606.36" type="right_before_left"/>
    <node id="1097434533" x="1933.64" y="1220.62" type="priority"/>
    <node id="1097434537" x="1680.66" y="1235.93" type="right_before_left"/>
    <node id="1097434565" x="1856.04" y="1254.42" type="right_before_left"/>
    <node id="1097434585" x="1860.64" y="1208.34" type="right_before_left"/>
    <node id="1098573665" x="2028.71" y="1278.24" type="dead_end"/>
    <node id="1098573739" x="1986.86" y="1231.52" type="priority"/>
    <node id="1098573787" x="1975.15" y="1303.70" type="dead_end"/>
    <node id="1098573790" x="1982.77" y="1272.70" type="dead_end"/>
    <node id="1098573800" x="2067.37" y="1251.03" type="dead_end"/>
    <node id="1098573850" x="2050.32" y="1354.47" type="dead_end"/>
    <node id="1098573855" x="2097.70" y="1318.39" type="dead_end"/>
    <node id="1098573953" x="1984.23" y="1331.64" type="dead_end"/>
    <node id="1098573971" x="2069.74" y="1341.23" type="dead_end"/>
    <node id="1098574248" x="1982.04" y="1304.54" type="dead_end"/>
    <node id="1098574275" x="1992.78" y="1310.67" type="dead_end"/>
    <node id="1098574474" x="1994.19" y="1301.80" type="dead_end"/>
    <node id="1098574554" x="2008.56" y="1246.96" type="dead_end"/>
    <node id="1098574758" x="1992.11" y="1326.22" type="dead_end"/>
    <node id="10992560157" x="387.33" y="90.13" type="priority"/>
    <node id="10992560158" x="388.26" y="87.20" type="priority"/>
    <node id="10992560159" x="384.91" y="97.33" type="priority"/>
    <node id="11012600624" x="2530.54" y="1180.33" type="unregulated"/>
    <node id="11139506096" x="921.30" y="1224.15" type="dead_end"/>
    <node id="11139506097" x="879.32" y="1223.89" type="dead_end"/>
    <node id="11139506098" x="879.79" y="1229.32" type="dead_end"/>
    <node id="11196808964" x="1480.92" y="931.63" type="dead_end"/>
    <node id="1121150036-AddedOffRampNode" x="2043.04" y="846.43" type="priority"/>
    <node id="11261021781" x="2029.25" y="967.20" type="dead_end"/>
    <node id="11275764198" x="1376.22" y="1306.66" type="dead_end"/>
    <node id="11303338739" x="2067.53" y="1185.13" type="dead_end"/>
    <node id="11303338740" x="2064.20" y="1169.74" type="dead_end"/>
    <node id="11310647341" x="1727.86" y="350.50" type="dead_end"/>
    <node id="11310647342" x="1727.44" y="351.81" type="dead_end"/>
    <node id="11310647343" x="1726.08" y="350.31" type="dead_end"/>
    <node id="11310647344" x="1721.97" y="355.86" type="dead_end"/>
    <node id="11310647345" x="1720.78" y="354.19" type="dead_end"/>
    <node id="11310647362" x="1720.07" y="313.38" type="dead_end"/>
    <node id="11310647363" x="1715.27" y="330.55" type="dead_end"/>
    <node id="11310647364" x="1721.88" y="315.62" type="dead_end"/>
    <node id="11310647365" x="1718.01" y="329.41" type="dead_end"/>
    <node id="11310647366" x="1717.68" y="314.28" type="dead_end"/>
    <node id="11310647367" x="1713.95" y="328.25" type="dead_end"/>
    <node id="1132356891" x="2164.76" y="1109.62" type="right_before_left"/>
    <node id="1132394637" x="887.86" y="823.78" type="dead_end"/>
    <node id="1132394644" x="694.04" y="399.70" type="dead_end"/>
    <node id="1132394655" x="434.35" y="344.02" type="traffic_light" tl="joinedS_1132394655_4503189157_4503189616_7530508554_#1more" tlType="actuated"/>
    <node id="1132394666" x="907.94" y="434.34" type="dead_end"/>
    <node id="1132394676" x="906.66" y="424.67" type="dead_end"/>
    <node id="1132394679" x="887.83" y="471.01" type="dead_end"/>
    <node id="1132394690" x="446.13" y="351.83" type="dead_end"/>
    <node id="1132394723" x="955.05" y="710.89" type="dead_end"/>
    <node id="1132394736" x="695.25" y="393.05" type="priority"/>
    <node id="1132394737" x="1091.81" y="797.12" type="dead_end"/>
    <node id="1132394739" x="442.87" y="444.37" type="dead_end"/>
    <node id="1132394741" x="1078.03" y="738.81" type="dead_end"/>
    <node id="1132394756" x="865.37" y="596.92" type="dead_end"/>
    <node id="1132394757" x="559.34" y="392.70" type="dead_end"/>
    <node id="1132394763" x="690.89" y="409.51" type="traffic_light" tl="joinedS_1132394763_cluster_10767399412_9977217875" tlType="actuated"/>
    <node id="1132394765" x="1048.63" y="708.98" type="dead_end"/>
    <node id="1132394770" x="575.88" y="796.10" type="dead_end"/>
    <node id="1132394775" x="470.43" y="411.91" type="dead_end"/>
    <node id="1132394776" x="556.52" y="789.81" type="traffic_light" tl="1132394776" tlType="actuated"/>
    <node id="1132394777" x="881.34" y="586.49" type="dead_end"/>
    <node id="1132394780" x="1006.07" y="830.05" type="dead_end"/>
    <node id="1132394787" x="924.30" y="499.83" type="dead_end"/>
    <node id="1132394793" x="864.67" y="589.14" type="dead_end"/>
    <node id="1132394795" x="719.90" y="402.02" type="priority"/>
    <node id="1132394802" x="869.27" y="381.98" type="priority"/>
    <node id="1132394806" x="574.02" y="670.77" type="dead_end"/>
    <node id="1132394826" x="461.76" y="362.61" type="dead_end"/>
    <node id="1132394832" x="718.74" y="394.54" type="priority"/>
    <node id="1132394835" x="449.16" y="419.72" type="dead_end"/>
    <node id="1132394836" x="1036.42" y="678.44" type="dead_end"/>
    <node id="1132394838" x="925.63" y="822.62" type="dead_end"/>
    <node id="1132394876" x="577.88" y="660.11" type="dead_end"/>
    <node id="1132394894" x="568.47" y="793.96" type="traffic_light" tl="1132394894" tlType="actuated"/>
    <node id="1132394908" x="731.74" y="415.38" type="dead_end"/>
    <node id="1132394909" x="1025.19" y="703.14" type="dead_end"/>
    <node id="1132438626" x="378.00" y="656.31" type="dead_end"/>
    <node id="1132438641" x="593.23" y="541.06" type="dead_end"/>
    <node id="1132438653" x="387.89" y="650.91" type="dead_end"/>
    <node id="1132438697" x="298.77" y="737.83" type="priority"/>
    <node id="1132438738" x="320.37" y="724.16" type="dead_end"/>
    <node id="1132438783" x="341.90" y="729.53" type="dead_end"/>
    <node id="1132438827" x="396.27" y="528.96" type="dead_end"/>
    <node id="1132438855" x="241.38" y="718.38" type="dead_end"/>
    <node id="1132438861" x="250.52" y="702.09" type="dead_end"/>
    <node id="1132438868" x="305.98" y="726.35" type="dead_end"/>
    <node id="1132438881" x="537.74" y="568.24" type="dead_end"/>
    <node id="1132438917" x="295.10" y="715.86" type="dead_end"/>
    <node id="11329906012" x="550.88" y="989.32" type="dead_end"/>
    <node id="11330298704" x="1904.97" y="1118.81" type="dead_end"/>
    <node id="11330298705" x="1913.26" y="1120.47" type="dead_end"/>
    <node id="11330298707" x="1900.65" y="1120.43" type="dead_end"/>
    <node id="11330298709" x="1950.81" y="1131.92" type="dead_end"/>
    <node id="11363141952" x="36.03" y="788.76" type="unregulated"/>
    <node id="11363141957" x="143.69" y="922.33" type="unregulated"/>
    <node id="11384696579" x="1707.00" y="1335.83" type="dead_end"/>
    <node id="11394662604" x="78.74" y="1401.61" type="priority"/>
    <node id="11397135739" x="1092.90" y="1379.69" type="dead_end"/>
    <node id="11397206498" x="905.75" y="1344.77" type="dead_end" fringe="inner">
        <param key="buffer_stop" value="true"/>
    </node>
    <node id="11397206499" x="905.73" y="1348.37" type="dead_end" fringe="inner">
        <param key="buffer_stop" value="true"/>
    </node>
    <node id="11397772645" x="2095.48" y="974.59" type="priority"/>
    <node id="11397772648" x="2075.46" y="1056.28" type="priority"/>
    <node id="1146549951" x="2180.49" y="706.36" type="priority"/>
    <node id="1146550359" x="2170.91" y="1278.04" type="priority"/>
    <node id="1146551263" x="2323.08" y="1336.15" type="unregulated"/>
    <node id="1146552076" x="2126.73" y="1127.48" type="priority"/>
    <node id="11501719590" x="44.59" y="1407.45" type="dead_end"/>
    <node id="11518381002" x="2188.31" y="1258.74" type="dead_end"/>
    <node id="11531758312" x="1364.62" y="1180.88" type="priority"/>
    <node id="11531758313" x="1356.06" y="1178.65" type="priority"/>
    <node id="1153869604" x="1181.59" y="1231.70" type="dead_end"/>
    <node id="1153869608" x="1124.78" y="1210.22" type="dead_end"/>
    <node id="1153869609" x="1163.65" y="1231.98" type="dead_end"/>
    <node id="1153869636" x="1071.11" y="1111.77" type="dead_end"/>
    <node id="1153869660" x="1101.72" y="1111.38" type="right_before_left"/>
    <node id="1153869662" x="1107.46" y="1221.10" type="priority"/>
    <node id="1153869668" x="1052.43" y="1110.55" type="dead_end"/>
    <node id="1153869682" x="1181.65" y="1209.70" type="dead_end"/>
    <node id="1153869711" x="1165.92" y="1249.85" type="dead_end"/>
    <node id="1153869735" x="1043.94" y="1100.75" type="dead_end"/>
    <node id="1153869736" x="1060.74" y="1064.70" type="dead_end"/>
    <node id="1153869739" x="1078.02" y="1106.14" type="dead_end"/>
    <node id="1153871303" x="1585.22" y="1194.18" type="priority"/>
    <node id="1153871305" x="1572.74" y="1191.99" type="priority"/>
    <node id="11566353384" x="2533.01" y="477.31" type="dead_end"/>
    <node id="11577445775" x="1233.43" y="1070.94" type="dead_end"/>
    <node id="11583209763" x="1926.44" y="116.55" type="unregulated"/>
    <node id="11583271570" x="2311.71" y="737.03" type="unregulated"/>
    <node id="11649566664" x="1660.67" y="268.78" type="dead_end"/>
    <node id="11697756441" x="1360.57" y="1301.49" type="dead_end"/>
    <node id="11697756442" x="1367.69" y="1288.51" type="dead_end"/>
    <node id="11698640739" x="1877.68" y="1360.37" type="priority"/>
    <node id="11725496294" x="1729.73" y="537.92" type="dead_end"/>
    <node id="11725496299" x="1737.62" y="528.62" type="priority"/>
    <node id="11728768467" x="1043.77" y="1347.34" type="priority"/>
    <node id="11746837700" x="103.31" y="652.19" type="dead_end"/>
    <node id="11746837701" x="95.96" y="668.98" type="dead_end"/>
    <node id="11746837709" x="301.80" y="719.56" type="priority"/>
    <node id="11746837715" x="394.02" y="463.65" type="right_before_left"/>
    <node id="11746837716" x="394.19" y="424.58" type="dead_end"/>
    <node id="11746837740" x="395.50" y="427.29" type="dead_end"/>
    <node id="11752029734" x="1547.77" y="1367.87" type="dead_end"/>
    <node id="11752029735" x="1536.18" y="1362.25" type="priority"/>
    <node id="11752029736" x="1532.42" y="1371.12" type="dead_end"/>
    <node id="11761837981" x="1853.92" y="1277.27" type="right_before_left"/>
    <node id="11761837983" x="1847.60" y="1276.77" type="dead_end"/>
    <node id="11761856676" x="1744.28" y="1360.46" type="priority"/>
    <node id="11761856677" x="1738.06" y="1365.12" type="dead_end"/>
    <node id="11774244055" x="1024.99" y="1360.17" type="priority"/>
    <node id="11774244056" x="1025.33" y="1369.40" type="priority"/>
    <node id="11811221314" x="1868.83" y="162.64" type="right_before_left"/>
    <node id="11811221317" x="1852.17" y="129.93" type="right_before_left"/>
    <node id="11818533398" x="425.57" y="337.57" type="dead_end"/>
    <node id="11869375157" x="1686.42" y="701.32" type="dead_end"/>
    <node id="11869375158" x="1688.34" y="694.31" type="dead_end"/>
    <node id="11872823962" x="2366.07" y="317.91" type="priority"/>
    <node id="11872823965" x="2356.03" y="301.24" type="priority"/>
    <node id="11872823967" x="2391.39" y="292.65" type="dead_end"/>
    <node id="11872823968" x="2392.36" y="292.16" type="dead_end"/>
    <node id="11874471839" x="818.78" y="248.42" type="dead_end"/>
    <node id="11874471842" x="818.87" y="246.41" type="dead_end"/>
    <node id="11874488000" x="605.28" y="164.95" type="dead_end"/>
    <node id="11874713790" x="1396.10" y="533.41" type="priority"/>
    <node id="11874794677" x="1464.80" y="585.19" type="priority"/>
    <node id="11874794678" x="1487.47" y="569.43" type="priority"/>
    <node id="11885603500" x="1471.14" y="155.15" type="dead_end"/>
    <node id="11885603501" x="1465.61" y="155.18" type="dead_end"/>
    <node id="11887135122" x="1117.75" y="264.25" type="dead_end"/>
    <node id="11887135123" x="1120.17" y="263.78" type="dead_end"/>
    <node id="11887629483" x="1831.66" y="1143.45" type="dead_end"/>
    <node id="11887629484" x="1863.62" y="1146.95" type="dead_end"/>
    <node id="11892029132" x="1322.68" y="845.91" type="dead_end"/>
    <node id="11895246998" x="1651.15" y="1274.31" type="dead_end"/>
    <node id="11895247004" x="1643.84" y="1314.39" type="priority"/>
    <node id="11895247005" x="1654.02" y="1271.55" type="dead_end"/>
    <node id="11895247006" x="1655.32" y="1270.47" type="dead_end"/>
    <node id="11895247012" x="1645.09" y="1309.77" type="dead_end"/>
    <node id="11895247013" x="1646.96" y="1310.59" type="dead_end"/>
    <node id="11895267753" x="1671.06" y="1306.66" type="priority"/>
    <node id="11895267762" x="1669.82" y="1305.60" type="right_before_left"/>
    <node id="11895538892" x="2036.50" y="598.73" type="priority"/>
    <node id="11895538906" x="2286.79" y="405.19" type="priority"/>
    <node id="11895538919" x="2427.19" y="312.80" type="priority"/>
    <node id="11895538924" x="2518.49" y="251.87" type="priority"/>
    <node id="11895538926" x="2530.78" y="241.73" type="dead_end"/>
    <node id="11895538937" x="2495.45" y="267.34" type="priority"/>
    <node id="11895538939" x="2405.97" y="326.58" type="priority"/>
    <node id="11895538940" x="2343.47" y="367.40" type="priority"/>
    <node id="11895538942" x="2261.27" y="421.91" type="priority"/>
    <node id="11895538954" x="2546.38" y="262.84" type="dead_end"/>
    <node id="11895538962" x="2530.70" y="270.24" type="priority"/>
    <node id="11895538963" x="2506.93" y="285.79" type="priority"/>
    <node id="11895538966" x="2438.42" y="330.66" type="priority"/>
    <node id="11895571477" x="2298.43" y="422.85" type="priority"/>
    <node id="11895571479" x="2273.78" y="438.81" type="priority"/>
    <node id="11895571484" x="2287.68" y="440.19" type="traffic_light" tl="joinedS_11895571484_cluster_11895538941_11895571478_11895571485_11895571486_#3more" tlType="actuated" controlledInner="-292807009#1 292807009#1"/>
    <node id="11895571557" x="1923.42" y="244.88" type="priority"/>
    <node id="11895571614" x="1912.95" y="225.57" type="priority"/>
    <node id="11908093791" x="1362.42" y="1298.11" type="dead_end"/>
    <node id="11913848201" x="1065.38" y="677.72" type="dead_end"/>
    <node id="11927282657" x="459.24" y="96.95" type="priority"/>
    <node id="11927318505" x="995.61" y="218.97" type="right_before_left"/>
    <node id="11946077417" x="719.45" y="399.86" type="dead_end"/>
    <node id="11946077438" x="707.08" y="402.72" type="dead_end"/>
    <node id="11946077468" x="696.22" y="400.21" type="dead_end"/>
    <node id="11946095716" x="94.17" y="657.58" type="right_before_left"/>
    <node id="11949005129" x="1525.66" y="1186.13" type="dead_end"/>
    <node id="11949005130" x="1521.09" y="1185.70" type="dead_end"/>
    <node id="11949005134" x="1455.56" y="1206.41" type="dead_end"/>
    <node id="11949005135" x="1522.08" y="1153.62" type="dead_end"/>
    <node id="11949005143" x="1458.08" y="1202.23" type="dead_end"/>
    <node id="11949005144" x="1474.86" y="1203.66" type="dead_end"/>
    <node id="11949005145" x="1521.31" y="1161.12" type="dead_end"/>
    <node id="11949005147" x="1474.59" y="1207.05" type="priority"/>
    <node id="1195530095" x="1732.31" y="994.65" type="priority"/>
    <node id="11958703817" x="1655.28" y="885.62" type="dead_end"/>
    <node id="11958703818" x="1654.67" y="886.57" type="dead_end"/>
    <node id="1196424590" x="1635.61" y="1367.23" type="dead_end"/>
    <node id="1196530779" x="1188.95" y="1196.23" type="dead_end"/>
    <node id="11979190010" x="1245.68" y="1294.77" type="dead_end"/>
    <node id="11979190012" x="1260.86" y="1321.12" type="dead_end"/>
    <node id="11992732711" x="1854.99" y="738.04" type="dead_end"/>
    <node id="11992732712" x="1852.61" y="741.14" type="dead_end"/>
    <node id="11992732713" x="1850.91" y="743.58" type="dead_end"/>
    <node id="11992732714" x="1858.44" y="733.06" type="dead_end"/>
    <node id="11992732715" x="1856.71" y="735.55" type="dead_end"/>
    <node id="11992732716" x="1860.64" y="729.66" type="dead_end"/>
    <node id="12023878068" x="1937.85" y="1286.31" type="priority"/>
    <node id="1202432360" x="1628.46" y="589.53" type="priority"/>
    <node id="12025055305" x="2542.91" y="2.73" type="dead_end"/>
    <node id="12025055327" x="2517.19" y="141.00" type="dead_end"/>
    <node id="12025055328" x="2524.99" y="136.22" type="dead_end"/>
    <node id="12025055350" x="2446.30" y="9.86" type="dead_end"/>
    <node id="12027184432" x="2264.18" y="412.02" type="dead_end"/>