<?xml version="1.0" encoding="UTF-8"?>

<!-- generated on 2024-11-24 04:52:17 by Eclipse SUMO netconvert Version 1.20.0
<configuration xmlns:xsi="http://www.w3.org/2001/XMLSchema-instance" xsi:noNamespaceSchemaLocation="http://sumo.dlr.de/xsd/netconvertConfiguration.xsd">

    <input>
        <sumo-net-file value="/Users/xfu/bu-courses-repo/cds-ds-340/ds340-project/Version1/2024-11-05-18-42-37/osm.net.xml.gz"/>
    </input>

    <output>
        <plain-output-prefix value="temp_tl_info"/>
        <output.street-names value="true"/>
    </output>

    <processing>
        <geometry.min-radius.fix.railways value="false"/>
        <geometry.max-grade.fix value="false"/>
        <offset.disable-normalization value="true"/>
        <lefthand value="0"/>
    </processing>

    <junctions>
        <no-turnarounds value="true"/>
        <junctions.corner-detail value="5"/>
        <junctions.limit-turn-speed value="5.50"/>
        <rectangular-lane-cut value="0"/>
    </junctions>

    <pedestrian>
        <walkingareas value="1"/>
    </pedestrian>

</configuration>
-->

<connections version="1.20" xmlns:xsi="http://www.w3.org/2001/XMLSchema-instance" xsi:noNamespaceSchemaLocation="http://sumo.dlr.de/xsd/connections_file.xsd">
    <connection from="-1000832622#2" to="8647575#1" fromLane="0" toLane="0"/>
    <connection from="-1000832622#2" to="-426491214#1" fromLane="0" toLane="1"/>
    <connection from="-1000832622#2" to="1000832622#1" fromLane="0" toLane="0"/>

    <connection from="-1024772957#0" to="566657861#0" fromLane="0" toLane="0"/>
    <connection from="-1024772957#0" to="-566657861#1" fromLane="0" toLane="0"/>
    <connection from="-1024772957#0" to="1024772957#0" fromLane="0" toLane="0"/>

    <connection from="-1024772957#1" to="-1024772957#0" fromLane="0" toLane="0"/>
    <connection from="-1024772957#1" to="1024772957#1" fromLane="0" toLane="0"/>

    <connection from="-1024772971" to="1024772972" fromLane="0" toLane="0"/>

    <connection from="-1030057021" to="-836269166#0" fromLane="0" toLane="0"/>
    <connection from="-1030057021" to="8638390#4" fromLane="0" toLane="1"/>
    <connection from="-1030057021" to="771112858#1" fromLane="0" toLane="0"/>

    <connection from="-1030057025" to="-426491164#0" fromLane="0" toLane="1"/>
    <connection from="-1030057025" to="426491215#1" fromLane="0" toLane="2"/>
    <connection from="-1030057025" to="-485292830" fromLane="0" toLane="2"/>
    <connection from="-1030057025" to="1030057025" fromLane="0" toLane="0"/>

    <connection from="-1030057026" to="-383016839#1" fromLane="0" toLane="0"/>
    <connection from="-1030057026" to="1030057026" fromLane="0" toLane="0"/>

    <connection from="-103553904#1" to="8649873#0" fromLane="0" toLane="1"/>
    <connection from="-103553904#1" to="103553904#1" fromLane="0" toLane="0"/>

    <connection from="-103553906#0" to="-103553904#1" fromLane="0" toLane="0"/>
    <connection from="-103553906#0" to="289462997#1" fromLane="0" toLane="0"/>
    <connection from="-103553906#0" to="8643791#0" fromLane="0" toLane="0"/>
    <connection from="-103553906#0" to="103553906#0" fromLane="0" toLane="0"/>

    <connection from="-103553906#1" to="-103553906#0" fromLane="0" toLane="0"/>
    <connection from="-103553906#1" to="103553906#1" fromLane="0" toLane="0"/>

    <connection from="-103553906#2" to="8649526#0" fromLane="0" toLane="0"/>
    <connection from="-103553906#2" to="-103553906#1" fromLane="0" toLane="0"/>
    <connection from="-103553906#2" to="103553906#2" fromLane="0" toLane="0"/>

    <connection from="-103553906#3" to="-103553906#2" fromLane="0" toLane="0"/>
    <connection from="-103553906#3" to="8646916#1" fromLane="0" toLane="0"/>
    <connection from="-103553906#3" to="103553906#3" fromLane="0" toLane="0"/>

    <connection from="-103553906#4" to="8647849#0" fromLane="0" toLane="0"/>
    <connection from="-103553906#4" to="-103553906#3" fromLane="0" toLane="0"/>
    <connection from="-103553906#4" to="103553906#4" fromLane="0" toLane="0"/>

    <connection from="-103680391#1" to="591217296#0" fromLane="0" toLane="0"/>
    <connection from="-103680391#1" to="-862549735#1" fromLane="0" toLane="0"/>
    <connection from="-103680391#1" to="103680391#1" fromLane="0" toLane="1"/>

    <connection from="-1037186588" to="-810132948#1" fromLane="0" toLane="0"/>

    <connection from="-104205451#0" to="-856200767#1" fromLane="1" toLane="1"/>

    <connection from="-104210747#1" to="8648451#1" fromLane="1" toLane="0"/>
    <connection from="-104210747#1" to="-426489345#0" fromLane="1" toLane="1"/>
    <connection from="-104210747#1" to="104210747#1" fromLane="1" toLane="2"/>

    <connection from="-104210747#2" to="-104210747#1" fromLane="1" toLane="1"/>
    <connection from="-104210747#2" to="104210747#2" fromLane="1" toLane="2"/>

    <connection from="-104210747#5" to="8649075#1" fromLane="1" toLane="1"/>
    <connection from="-104210747#5" to="-104210747#2" fromLane="1" toLane="1"/>
    <connection from="-104210747#5" to="8642454#0" fromLane="1" toLane="0"/>
    <connection from="-104210747#5" to="104210747#5" fromLane="1" toLane="2"/>

    <connection from="-104210747#8" to="-104210747#5" fromLane="1" toLane="1"/>
    <connection from="-104210747#8" to="289462997#5" fromLane="1" toLane="0"/>
    <connection from="-104210747#8" to="104210747#8" fromLane="1" toLane="2"/>

    <connection from="-1042974152" to="-658046509" fromLane="0" toLane="0"/>
    <connection from="-1042974152" to="1042974152" fromLane="0" toLane="0"/>

    <connection from="-1061213100" to="-990899883#1" fromLane="0" toLane="0"/>
    <connection from="-1061213100" to="990899883#2" fromLane="0" toLane="0"/>

    <connection from="-1087035552#0" to="-1121694527#0" fromLane="0" toLane="0"/>
    <connection from="-1087035552#0" to="719614505#1" fromLane="0" toLane="0" allow="bicycle"/>
    <connection from="-1087035552#0" to="-8647521#0" fromLane="0" toLane="1"/>
    <connection from="-1087035552#0" to="1281809760#1" fromLane="0" toLane="0"/>
    <connection from="-1087035552#0" to="85890998#1" fromLane="0" toLane="0"/>
    <connection from="-1087035552#0" to="1087035552#0" fromLane="0" toLane="0"/>

    <connection from="-1087035552#1" to="-1087035552#0" fromLane="0" toLane="0"/>
    <connection from="-1087035552#1" to="1087035552#1" fromLane="0" toLane="0"/>

    <connection from="-1087035552#2" to="-1087035552#1" fromLane="0" toLane="0"/>
    <connection from="-1087035552#2" to="1087035552#2" fromLane="0" toLane="0"/>

    <connection from="-1087035558" to="1087035558" fromLane="0" toLane="0"/>

    <connection from="-1087041477" to="810132948#0" fromLane="0" toLane="0"/>
    <connection from="-1087041477" to="-32800315" fromLane="0" toLane="0"/>
    <connection from="-1087041477" to="1087041477" fromLane="0" toLane="0"/>

    <connection from="-1087041478" to="-383937741" fromLane="0" toLane="0"/>
    <connection from="-1087041478" to="-1087041477" fromLane="0" toLane="0"/>
    <connection from="-1087041478" to="8637722#1" fromLane="0" toLane="1"/>
    <connection from="-1087041478" to="806431512" fromLane="0" toLane="0"/>
    <connection from="-1087041478" to="92028174#1" fromLane="0" toLane="0"/>
    <connection from="-1087041478" to="1087041478" fromLane="0" toLane="0"/>

    <connection from="-1089085520#1" to="1281809765#1" fromLane="0" toLane="0"/>
    <connection from="-1089085520#1" to="-832439083#1" fromLane="0" toLane="0"/>
    <connection from="-1089085520#1" to="8638233#1" fromLane="0" toLane="0"/>
    <connection from="-1089085520#1" to="-832439083#1" fromLane="1" toLane="0"/>
    <connection from="-1089085520#1" to="8638233#1" fromLane="2" toLane="1"/>

    <connection from="-1089085521#0" to="-993825359#2" fromLane="0" toLane="0"/>
    <connection from="-1089085521#0" to="-993825359#2" fromLane="1" toLane="1"/>
    <connection from="-1089085521#0" to="-993825359#2" fromLane="2" toLane="2"/>
    <connection from="-1089085521#0" to="8638395#1" fromLane="2" toLane="0"/>
    <connection from="-1089085521#0" to="1089085521#0" fromLane="2" toLane="1"/>

    <connection from="-1089085521#1" to="-1089085521#0" fromLane="0" toLane="0"/>
    <connection from="-1089085521#1" to="-1089085521#0" fromLane="1" toLane="1"/>
    <connection from="-1089085521#1" to="-1089085521#0" fromLane="2" toLane="2"/>

    <connection from="-1089085521#2" to="-1089085521#1" fromLane="0" toLane="0"/>
    <connection from="-1089085521#2" to="-1089085521#1" fromLane="1" toLane="1"/>
    <connection from="-1089085521#2" to="-1089085521#1" fromLane="2" toLane="2"/>

    <connection from="-1089092083" to="-1285819765#2" fromLane="0" toLane="0"/>

    <connection from="-1096242208#0" to="-1175610614#0" fromLane="0" toLane="0"/>
    <connection from="-1096242208#0" to="8650197#0" fromLane="0" toLane="0"/>
    <connection from="-1096242208#0" to="1096242208#0" fromLane="0" toLane="1"/>

    <connection from="-1096242208#1" to="-1096242208#0" fromLane="0" toLane="0"/>
    <connection from="-1096242208#1" to="1096242208#1" fromLane="0" toLane="1"/>

    <connection from="-1096242209#1" to="-8645216#5" fromLane="0" toLane="0"/>

    <connection from="-1096242209#2" to="-1096242209#1" fromLane="0" toLane="0"/>
    <connection from="-1096242209#2" to="1096242209#2" fromLane="0" toLane="1"/>

    <connection from="-1096316166" to="1096316166" fromLane="0" toLane="0"/>

    <connection from="-1098934121#0" to="-1188182968" fromLane="0" toLane="0"/>

    <connection from="-1108965708#1" to="-242544492#3" fromLane="0" toLane="0"/>
    <connection from="-1108965708#1" to="8647152#1" fromLane="0" toLane="1"/>
    <connection from="-1108965708#1" to="846620949#1" fromLane="0" toLane="3"/>

    <connection from="-1111328431#1" to="8652409#4" fromLane="0" toLane="0"/>
    <connection from="-1111328431#1" to="8652409#4" fromLane="0" toLane="1"/>
    <connection from="-1111328431#1" to="8652409#4" fromLane="0" toLane="2"/>
    <connection from="-1111328431#1" to="1111328431#1" fromLane="0" toLane="0"/>

    <connection from="-1111720933" to="-292967031#1" fromLane="0" toLane="0"/>
    <connection from="-1111720933" to="-292967031#1" fromLane="0" toLane="1"/>
    <connection from="-1111720933" to="292967031#2" fromLane="0" toLane="0"/>
    <connection from="-1111720933" to="292967031#2" fromLane="0" toLane="2"/>
    <connection from="-1111720933" to="1111720933" fromLane="0" toLane="0"/>

    <connection from="-1111965193" to="-944495317#0" fromLane="0" toLane="0"/>
    <connection from="-1111965193" to="8651226#1" fromLane="0" toLane="1"/>
    <connection from="-1111965193" to="1111965193" fromLane="0" toLane="0"/>

    <connection from="-1112445421" to="1112445421" fromLane="0" toLane="0"/>

    <connection from="-1112835159#1" to="-1112835160#2" fromLane="0" toLane="0"/>
    <connection from="-1112835159#1" to="1115616588#0" fromLane="0" toLane="0"/>
    <connection from="-1112835159#1" to="1112835160#3" fromLane="0" toLane="0"/>
    <connection from="-1112835159#1" to="1112835159#1" fromLane="0" toLane="0"/>

    <connection from="-1112835160#1" to="1115616589" fromLane="0" toLane="0"/>
    <connection from="-1112835160#1" to="1112835160#1" fromLane="0" toLane="0"/>

    <connection from="-1112835160#2" to="1241149233#0" fromLane="0" toLane="0"/>
    <connection from="-1112835160#2" to="-1112835160#1" fromLane="0" toLane="0"/>
    <connection from="-1112835160#2" to="1112835160#2" fromLane="0" toLane="0"/>

    <connection from="-1112835160#3" to="1112835159#1" fromLane="0" toLane="0"/>
    <connection from="-1112835160#3" to="-1112835160#2" fromLane="0" toLane="0"/>
    <connection from="-1112835160#3" to="1115616588#0" fromLane="0" toLane="0"/>
    <connection from="-1112835160#3" to="1112835160#3" fromLane="0" toLane="0"/>

    <connection from="-1112835160#4" to="-1112835160#3" fromLane="0" toLane="0"/>
    <connection from="-1112835160#4" to="1112835160#4" fromLane="0" toLane="0"/>

    <connection from="-1112835160#5" to="1112835161#0" fromLane="0" toLane="0"/>
    <connection from="-1112835160#5" to="-1112835160#4" fromLane="0" toLane="0"/>
    <connection from="-1112835160#5" to="1115616587" fromLane="0" toLane="0"/>
    <connection from="-1112835160#5" to="1112835160#5" fromLane="0" toLane="0"/>

    <connection from="-1112835160#6" to="1115616600" fromLane="0" toLane="0"/>
    <connection from="-1112835160#6" to="-1112835160#5" fromLane="0" toLane="0"/>
    <connection from="-1112835160#6" to="1112835160#6" fromLane="0" toLane="0"/>

    <connection from="-1112835160#7" to="-1115616609#1" fromLane="0" toLane="0"/>
    <connection from="-1112835160#7" to="-1112835160#6" fromLane="0" toLane="0"/>
    <connection from="-1112835160#7" to="-1115616585#2" fromLane="0" toLane="0"/>
    <connection from="-1112835160#7" to="1112835160#7" fromLane="0" toLane="0"/>

    <connection from="-1112835160#8" to="-1115616621" fromLane="0" toLane="0"/>
    <connection from="-1112835160#8" to="-1112835160#7" fromLane="0" toLane="0"/>
    <connection from="-1112835160#8" to="-1115616623" fromLane="0" toLane="0"/>
    <connection from="-1112835160#8" to="1112835160#8" fromLane="0" toLane="0"/>

    <connection from="-1112835161#0" to="-1112835160#4" fromLane="0" toLane="0"/>
    <connection from="-1112835161#0" to="1115616587" fromLane="0" toLane="0"/>
    <connection from="-1112835161#0" to="1112835160#5" fromLane="0" toLane="0"/>
    <connection from="-1112835161#0" to="1112835161#0" fromLane="0" toLane="0"/>

    <connection from="-1112835161#1" to="1112835163" fromLane="0" toLane="0"/>
    <connection from="-1112835161#1" to="-1112835161#0" fromLane="0" toLane="0"/>
    <connection from="-1112835161#1" to="1112835161#1" fromLane="0" toLane="0"/>

    <connection from="-1112835163" to="-1112835161#0" fromLane="0" toLane="0"/>
    <connection from="-1112835163" to="1112835161#1" fromLane="0" toLane="0"/>
    <connection from="-1112835163" to="1112835163" fromLane="0" toLane="0"/>

    <connection from="-1113193581#1" to="-1115616620#1" fromLane="0" toLane="0"/>
    <connection from="-1113193581#1" to="-1115616624" fromLane="0" toLane="0"/>
    <connection from="-1113193581#1" to="1113193581#1" fromLane="0" toLane="0"/>

    <connection from="-1115273723#1" to="1115273723#0" fromLane="0" toLane="0"/>

    <connection from="-1115273724" to="1115273724" fromLane="0" toLane="0"/>

    <connection from="-1115616585#0" to="1115616585#0" fromLane="0" toLane="0"/>

    <connection from="-1115616585#1" to="-1115616588#2" fromLane="0" toLane="0"/>
    <connection from="-1115616585#1" to="-1115616585#0" fromLane="0" toLane="0"/>
    <connection from="-1115616585#1" to="1115616585#1" fromLane="0" toLane="0"/>

    <connection from="-1115616585#2" to="-1115616587" fromLane="0" toLane="0"/>
    <connection from="-1115616585#2" to="-1115616585#1" fromLane="0" toLane="0"/>
    <connection from="-1115616585#2" to="1115616585#2" fromLane="0" toLane="0"/>

    <connection from="-1115616586#0" to="1115616586#0" fromLane="0" toLane="0"/>

    <connection from="-1115616586#1" to="-1112835159#1" fromLane="0" toLane="0"/>
    <connection from="-1115616586#1" to="-1115616586#0" fromLane="0" toLane="0"/>
    <connection from="-1115616586#1" to="1115616586#1" fromLane="0" toLane="0"/>

    <connection from="-1115616587" to="1112835160#5" fromLane="0" toLane="0"/>
    <connection from="-1115616587" to="1112835161#0" fromLane="0" toLane="0"/>
    <connection from="-1115616587" to="-1112835160#4" fromLane="0" toLane="0"/>
    <connection from="-1115616587" to="1115616587" fromLane="0" toLane="0"/>

    <connection from="-1115616588#0" to="1112835160#3" fromLane="0" toLane="0"/>
    <connection from="-1115616588#0" to="1112835159#1" fromLane="0" toLane="0"/>
    <connection from="-1115616588#0" to="-1112835160#2" fromLane="0" toLane="0"/>
    <connection from="-1115616588#0" to="1115616588#0" fromLane="0" toLane="0"/>

    <connection from="-1115616588#2" to="-1115616588#0" fromLane="0" toLane="0"/>
    <connection from="-1115616588#2" to="-1115616590" fromLane="0" toLane="0"/>
    <connection from="-1115616588#2" to="1115616588#2" fromLane="0" toLane="0"/>

    <connection from="-1115616589" to="1112835160#1" fromLane="0" toLane="0"/>
    <connection from="-1115616589" to="1115616589" fromLane="0" toLane="0"/>

    <connection from="-1115616590" to="1115616590" fromLane="0" toLane="0"/>

    <connection from="-1115616592" to="1115616592" fromLane="0" toLane="0"/>

    <connection from="-1115616595#0" to="1115616595#0" fromLane="0" toLane="0"/>

    <connection from="-1115616595#1" to="-1115616612" fromLane="0" toLane="0"/>
    <connection from="-1115616595#1" to="-1115616595#0" fromLane="0" toLane="0"/>
    <connection from="-1115616595#1" to="1115616595#1" fromLane="0" toLane="0"/>

    <connection from="-1115616600" to="-1112835160#5" fromLane="0" toLane="0"/>
    <connection from="-1115616600" to="1112835160#6" fromLane="0" toLane="0"/>
    <connection from="-1115616600" to="1115616600" fromLane="0" toLane="0"/>

    <connection from="-1115616604#0" to="-1115616617#1" fromLane="0" toLane="0"/>
    <connection from="-1115616604#0" to="-1115616616#0" fromLane="0" toLane="0"/>
    <connection from="-1115616604#0" to="1115616604#0" fromLane="0" toLane="0"/>

    <connection from="-1115616604#2" to="-1115616613" fromLane="0" toLane="0"/>
    <connection from="-1115616604#2" to="-1115616604#0" fromLane="0" toLane="0"/>
    <connection from="-1115616604#2" to="-1115273723#1" fromLane="0" toLane="0"/>
    <connection from="-1115616604#2" to="1115616604#2" fromLane="0" toLane="0"/>

    <connection from="-1115616609#1" to="1115616620#0" fromLane="0" toLane="0"/>
    <connection from="-1115616609#1" to="1115616610#0" fromLane="0" toLane="0"/>
    <connection from="-1115616609#1" to="1115616609#1" fromLane="0" toLane="0"/>

    <connection from="-1115616610#0" to="1115616609#1" fromLane="0" toLane="0"/>
    <connection from="-1115616610#0" to="1115616620#0" fromLane="0" toLane="0"/>
    <connection from="-1115616610#0" to="1115616610#0" fromLane="0" toLane="0"/>

    <connection from="-1115616610#1" to="1115616613" fromLane="0" toLane="0"/>
    <connection from="-1115616610#1" to="-1115616610#0" fromLane="0" toLane="0"/>
    <connection from="-1115616610#1" to="1115616610#1" fromLane="0" toLane="0"/>

    <connection from="-1115616612" to="-1115616610#1" fromLane="0" toLane="0"/>
    <connection from="-1115616612" to="1115616612" fromLane="0" toLane="0"/>

    <connection from="-1115616613" to="-1115616610#0" fromLane="0" toLane="0"/>
    <connection from="-1115616613" to="1115616610#1" fromLane="0" toLane="0"/>
    <connection from="-1115616613" to="1115616613" fromLane="0" toLane="0"/>

    <connection from="-1115616616#0" to="1115616617#0" fromLane="0" toLane="0"/>

    <connection from="-1115616617#1" to="1115616616#0" fromLane="0" toLane="0"/>

    <connection from="-1115616620#0" to="1115616610#0" fromLane="0" toLane="0"/>
    <connection from="-1115616620#0" to="1115616609#1" fromLane="0" toLane="0"/>
    <connection from="-1115616620#0" to="1115616620#0" fromLane="0" toLane="0"/>

    <connection from="-1115616620#1" to="-1115616620#0" fromLane="0" toLane="0"/>
    <connection from="-1115616620#1" to="1115616621" fromLane="0" toLane="0"/>
    <connection from="-1115616620#1" to="1115616620#1" fromLane="0" toLane="0"/>

    <connection from="-1115616621" to="1115616620#1" fromLane="0" toLane="0"/>
    <connection from="-1115616621" to="-1115616620#0" fromLane="0" toLane="0"/>
    <connection from="-1115616621" to="1115616621" fromLane="0" toLane="0"/>

    <connection from="-1115616623" to="1115616623" fromLane="0" toLane="0"/>

    <connection from="-1115616624" to="-1112835160#8" fromLane="0" toLane="0"/>
    <connection from="-1115616624" to="1115616624" fromLane="0" toLane="0"/>

    <connection from="-1115824694#0" to="828301024#0" fromLane="0" toLane="0"/>
    <connection from="-1115824694#0" to="-29327981" fromLane="0" toLane="0"/>
    <connection from="-1115824694#0" to="-1115824695#2" fromLane="0" toLane="0"/>
    <connection from="-1115824694#0" to="1115824694#0" fromLane="0" toLane="0"/>

    <connection from="-1115824694#1" to="-1115824694#0" fromLane="0" toLane="0"/>
    <connection from="-1115824694#1" to="1115824694#1" fromLane="0" toLane="0"/>

    <connection from="-1115824694#2" to="-1115824694#1" fromLane="0" toLane="0"/>
    <connection from="-1115824694#2" to="172451155#0" fromLane="0" toLane="0"/>
    <connection from="-1115824694#2" to="1115824694#2" fromLane="0" toLane="0"/>

    <connection from="-1115824694#3" to="-1115824694#2" fromLane="0" toLane="0"/>
    <connection from="-1115824694#3" to="1115824694#3" fromLane="0" toLane="0"/>

    <connection from="-1115824695#0" to="1115824695#0" fromLane="0" toLane="0"/>

    <connection from="-1115824695#1" to="-1115824695#0" fromLane="0" toLane="0"/>
    <connection from="-1115824695#1" to="1115824695#1" fromLane="0" toLane="0"/>

    <connection from="-1115824695#2" to="-1115824695#1" fromLane="0" toLane="0"/>
    <connection from="-1115824695#2" to="-172451155#1" fromLane="0" toLane="0"/>
    <connection from="-1115824695#2" to="1115824695#2" fromLane="0" toLane="0"/>

    <connection from="-1115824696" to="242536777" fromLane="0" toLane="0"/>
    <connection from="-1115824696" to="-29327930#1" fromLane="0" toLane="0"/>
    <connection from="-1115824696" to="-1115824697" fromLane="0" toLane="0"/>
    <connection from="-1115824696" to="1115824696" fromLane="0" toLane="0"/>

    <connection from="-1115824697" to="-32800244#2" fromLane="0" toLane="0"/>
    <connection from="-1115824697" to="1115824697" fromLane="0" toLane="0"/>

    <connection from="-1120503844" to="-426488942" fromLane="0" toLane="0"/>
    <connection from="-1120503844" to="-426488942" fromLane="1" toLane="0" keepClear="0"/>
    <connection from="-1120503844" to="-426488942" fromLane="2" toLane="1" keepClear="0"/>

    <connection from="-1120509015#0" to="-292807009#3" fromLane="1" toLane="0"/>
    <connection from="-1120509015#0" to="-292807009#3" fromLane="2" toLane="1"/>

    <connection from="-1120509015#1" to="-1120509015#0" fromLane="1" toLane="1"/>
    <connection from="-1120509015#1" to="-1120509015#0" fromLane="2" toLane="2"/>
    <connection from="-1120509015#1" to="-862890596#0" fromLane="2" toLane="0"/>

    <connection from="-1121694527#0" to="426488940#1" fromLane="0" toLane="1"/>
    <connection from="-1121694527#0" to="426488940#1" fromLane="0" toLane="2"/>
    <connection from="-1121694527#0" to="426488940#1" fromLane="1" toLane="3"/>
    <connection from="-1121694527#0" to="426491386#1" fromLane="1" toLane="1"/>

    <connection from="-1121696256#2" to="290048940#1" fromLane="0" toLane="1"/>
    <connection from="-1121696256#2" to="-943460422#1" fromLane="0" toLane="0"/>
    <connection from="-1121696256#2" to="1281809772" fromLane="1" toLane="0"/>
    <connection from="-1121696256#2" to="187589429#1" fromLane="1" toLane="1"/>
    <connection from="-1121696256#2" to="1121696256#1" fromLane="1" toLane="1"/>

    <connection from="-1121981969#2" to="1285819769#1" fromLane="0" toLane="1"/>
    <connection from="-1121981969#2" to="404948105#1" fromLane="0" toLane="0"/>
    <connection from="-1121981969#2" to="404948105#1" fromLane="0" toLane="1"/>
    <connection from="-1121981969#2" to="8651676#1" fromLane="0" toLane="2"/>
    <connection from="-1121981969#2" to="1121981969#1" fromLane="0" toLane="1"/>

    <connection from="-1149179308#0" to="1149179308#0" fromLane="0" toLane="0"/>

    <connection from="-1149179308#1" to="-1149179308#0" fromLane="0" toLane="0"/>
    <connection from="-1149179308#1" to="1149179308#1" fromLane="0" toLane="0"/>

    <connection from="-1149179309" to="-1149179308#1" fromLane="0" toLane="0"/>
    <connection from="-1149179309" to="1149179309" fromLane="0" toLane="0"/>

    <connection from="-1149179317#0" to="-485001511#1" fromLane="0" toLane="0"/>
    <connection from="-1149179317#0" to="8637586#1" fromLane="0" toLane="1"/>
    <connection from="-1149179317#0" to="48941978#1" fromLane="0" toLane="1"/>
    <connection from="-1149179317#0" to="-383016844" fromLane="0" toLane="0" allow="bicycle"/>
    <connection from="-1149179317#0" to="1149179317#0" fromLane="0" toLane="0"/>

    <connection from="-1149179317#1" to="-1149179317#0" fromLane="0" toLane="0"/>
    <connection from="-1149179317#1" to="289638114" fromLane="0" toLane="0"/>
    <connection from="-1149179317#1" to="1149179317#1" fromLane="0" toLane="0"/>

    <connection from="-1149179318" to="-689704488" fromLane="0" toLane="0"/>
    <connection from="-1149179318" to="485001511#1" fromLane="0" toLane="0"/>
    <connection from="-1149179318" to="-1149179317#1" fromLane="0" toLane="0"/>
    <connection from="-1149179318" to="1149179318" fromLane="0" toLane="0"/>

    <connection from="-1149299881" to="1149299881" fromLane="0" toLane="0"/>

    <connection from="-1149299883#0" to="-1157021899" fromLane="0" toLane="0"/>
    <connection from="-1149299883#0" to="1149299883#0" fromLane="0" toLane="0"/>

    <connection from="-1149299883#1" to="-1149299883#0" fromLane="0" toLane="0"/>
    <connection from="-1149299883#1" to="1149299883#1" fromLane="0" toLane="0"/>

    <connection from="-1152962274#0" to="1152962274#0" fromLane="0" toLane="0"/>

    <connection from="-1152962274#1" to="-1152962274#0" fromLane="0" toLane="0"/>
    <connection from="-1152962274#1" to="1152962274#1" fromLane="0" toLane="0"/>

    <connection from="-1152962275#0" to="1152962275#0" fromLane="0" toLane="0"/>

    <connection from="-1152962275#1" to="-1152962275#0" fromLane="0" toLane="0"/>
    <connection from="-1152962275#1" to="1152962275#1" fromLane="0" toLane="0"/>

    <connection from="-1154673770#1" to="-1096242209#2" fromLane="0" toLane="0"/>
    <connection from="-1154673770#1" to="-591136310#3" fromLane="0" toLane="0"/>
    <connection from="-1154673770#1" to="591235979#1" fromLane="0" toLane="2"/>
    <connection from="-1154673770#1" to="1154673770#1" fromLane="0" toLane="1"/>

    <connection from="-1154673772#0" to="-333071936#1" fromLane="0" toLane="0"/>
    <connection from="-1154673772#0" to="8638403#1" fromLane="0" toLane="0"/>
    <connection from="-1154673772#0" to="1154673772#0" fromLane="0" toLane="0"/>

    <connection from="-1157021899" to="85310733" fromLane="0" toLane="0"/>
    <connection from="-1157021899" to="1157021899" fromLane="0" toLane="0"/>

    <connection from="-1175610614#0" to="-8647872#1" fromLane="0" toLane="0"/>
    <connection from="-1175610614#0" to="8647872#2" fromLane="0" toLane="1"/>

    <connection from="-1175628406#0" to="-815606419#1" fromLane="0" toLane="0"/>
    <connection from="-1175628406#0" to="206541037#0" fromLane="0" toLane="0"/>
    <connection from="-1175628406#0" to="1175628406#0" fromLane="1" toLane="0"/>

    <connection from="-1175628740" to="1175628740" fromLane="0" toLane="0"/>
    <connection from="-1175628740" to="-8648229#0" fromLane="0" toLane="1"/>
    <connection from="-1175628740" to="8648229#2" fromLane="0" toLane="1"/>

    <connection from="-118254394#1" to="8641115#3" fromLane="0" toLane="0"/>
    <connection from="-118254394#1" to="118254394#1" fromLane="0" toLane="0"/>

    <connection from="-1183737266#0" to="916811161#1" fromLane="0" toLane="1"/>
    <connection from="-1183737266#0" to="-916811161#0" fromLane="0" toLane="1"/>
    <connection from="-1183737266#0" to="1183737266#0" fromLane="0" toLane="0"/>

    <connection from="-1183737266#1" to="-1183737266#0" fromLane="0" toLane="0"/>
    <connection from="-1183737266#1" to="1183737266#1" fromLane="0" toLane="0"/>

    <connection from="-1185546972" to="-1112445421" fromLane="0" toLane="0"/>
    <connection from="-1185546972" to="1185546972" fromLane="0" toLane="0"/>
    <connection from="-1185546972" to="-99102366" fromLane="0" toLane="0"/>

    <connection from="-1188182968" to="-8648179#2" fromLane="0" toLane="0"/>
    <connection from="-1188182968" to="127555663" fromLane="0" toLane="0"/>

    <connection from="-1198318807#1" to="8639568#1" fromLane="0" toLane="0"/>
    <connection from="-1198318807#1" to="-289654498" fromLane="0" toLane="0"/>
    <connection from="-1198318807#1" to="8639568#1" fromLane="1" toLane="0"/>
    <connection from="-1198318807#1" to="-289654498" fromLane="1" toLane="1"/>
    <connection from="-1198318807#1" to="-289654498" fromLane="2" toLane="2"/>
    <connection from="-1198318807#1" to="8645086#1" fromLane="2" toLane="0"/>
    <connection from="-1198318807#1" to="1198318807#0" fromLane="2" toLane="2"/>

    <connection from="-1212692908#0" to="-426497570#2" fromLane="0" toLane="0"/>
    <connection from="-1212692908#0" to="-426497570#2" fromLane="1" toLane="1"/>
    <connection from="-1212692908#0" to="635009720#0" fromLane="1" toLane="0"/>

    <connection from="-1212692909" to="-426497572#1" fromLane="0" toLane="0"/>
    <connection from="-1212692909" to="-426497572#1" fromLane="1" toLane="1"/>

    <connection from="-1219880583#0" to="1219880583#0" fromLane="0" toLane="0"/>

    <connection from="-1219880583#1" to="798341511#2" fromLane="0" toLane="0"/>
    <connection from="-1219880583#1" to="-1219880583#0" fromLane="0" toLane="0"/>
    <connection from="-1219880583#1" to="-798341511#1" fromLane="0" toLane="0"/>
    <connection from="-1219880583#1" to="1219880583#1" fromLane="0" toLane="0"/>

    <connection from="-1225322837" to="1225322837" fromLane="0" toLane="0"/>

    <connection from="-1229045524#1" to="-140065785#1" fromLane="0" toLane="0"/>
    <connection from="-1229045524#1" to="140065785#2" fromLane="0" toLane="0"/>
    <connection from="-1229045524#1" to="1229045524#1" fromLane="0" toLane="0"/>

    <connection from="-1229045525#1" to="8648179#2" fromLane="0" toLane="0"/>
    <connection from="-1229045525#1" to="-8648179#1" fromLane="0" toLane="0"/>
    <connection from="-1229045525#1" to="1229045525#1" fromLane="0" toLane="0"/>
