<?xml version="1.0" encoding="UTF-8"?>

<!-- generated on 2024-11-24 04:52:17 by Eclipse SUMO netconvert Version 1.20.0
<configuration xmlns:xsi="http://www.w3.org/2001/XMLSchema-instance" xsi:noNamespaceSchemaLocation="http://sumo.dlr.de/xsd/netconvertConfiguration.xsd">

    <input>
        <sumo-net-file value="/Users/xfu/bu-courses-repo/cds-ds-340/ds340-project/Version1/2024-11-05-18-42-37/osm.net.xml.gz"/>
    </input>

    <output>
        <plain-output-prefix value="temp_tl_info"/>
        <output.street-names value="true"/>
    </output>

    <processing>
        <geometry.min-radius.fix.railways value="false"/>
        <geometry.max-grade.fix value="false"/>
        <offset.disable-normalization value="true"/>
        <lefthand value="0"/>
    </processing>

    <junctions>
        <no-turnarounds value="true"/>
        <junctions.corner-detail value="5"/>
        <junctions.limit-turn-speed value="5.50"/>
        <rectangular-lane-cut value="0"/>
    </junctions>

    <pedestrian>
        <walkingareas value="1"/>
    </pedestrian>

</configuration>
-->

<tlLogics version="1.20" xmlns:xsi="http://www.w3.org/2001/XMLSchema-instance" xsi:noNamespaceSchemaLocation="http://sumo.dlr.de/xsd/tllogic_file.xsd">
    <tlLogic id="1038913937" type="actuated" programID="0" offset="0">
        <phase duration="77" state="GGgr" minDur="5" maxDur="50"/>
        <phase duration="3"  state="yyyr"/>
        <phase duration="5"  state="rrrG"/>
        <phase duration="5"  state="rrrr"/>
    </tlLogic>
    <tlLogic id="1132394776" type="actuated" programID="0" offset="0">
        <phase duration="77" state="GGgr" minDur="5" maxDur="50"/>
        <phase duration="3"  state="yyyr"/>
        <phase duration="5"  state="rrrG"/>
        <phase duration="5"  state="rrrr"/>
    </tlLogic>
    <tlLogic id="1132394894" type="actuated" programID="0" offset="0">
        <phase duration="82" state="GG" minDur="5" maxDur="50"/>
        <phase duration="3"  state="yy"/>
        <phase duration="5"  state="rr"/>
    </tlLogic>
    <tlLogic id="1830597833" type="actuated" programID="0" offset="0">
        <phase duration="82" state="GG" minDur="5" maxDur="50"/>
        <phase duration="3"  state="yy"/>
        <phase duration="5"  state="rr"/>
    </tlLogic>
    <tlLogic id="257744938" type="actuated" programID="0" offset="0">
        <phase duration="77" state="GGGGgr" minDur="5" maxDur="50"/>
        <phase duration="3"  state="yyyyyr"/>
        <phase duration="5"  state="rrrrrG"/>
        <phase duration="5"  state="rrrrrr"/>
    </tlLogic>
    <tlLogic id="3178035442" type="actuated" programID="0" offset="0">
        <phase duration="77" state="GGGr" minDur="5" maxDur="50"/>
        <phase duration="3"  state="yyyr"/>
        <phase duration="5"  state="rrrG"/>
        <phase duration="5"  state="rrrr"/>
    </tlLogic>
    <tlLogic id="61340552" type="actuated" programID="0" offset="0">
        <phase duration="32" state="rrrrrGgggGGgrG" minDur="5" maxDur="50"/>
        <phase duration="10" state="rrrrrGgggGGgrr"/>
        <phase duration="3"  state="rrrrryyyyyyyrr"/>
        <phase duration="32" state="GGGgGrrrrrrrGr" minDur="5" maxDur="50"/>
        <phase duration="10" state="GGGgGrrrrrrrrr"/>
        <phase duration="3"  state="yyyyyrrrrrrrrr"/>
    </tlLogic>
    <tlLogic id="731633428" type="actuated" programID="0" offset="0">
        <phase duration="39" state="rrrG" minDur="13" maxDur="50"/>
        <phase duration="6"  state="rrry"/>
        <phase duration="39" state="GGGr" minDur="5" maxDur="50"/>
        <phase duration="6"  state="yyyr"/>
    </tlLogic>
    <tlLogic id="7680765476" type="actuated" programID="0" offset="0">
        <phase duration="77" state="GGr" minDur="5" maxDur="50"/>
        <phase duration="3"  state="yyr"/>
        <phase duration="5"  state="rrG"/>
        <phase duration="5"  state="rrr"/>
    </tlLogic>
    <tlLogic id="7680782887" type="actuated" programID="0" offset="0">
        <phase duration="77" state="GGr" minDur="5" maxDur="50"/>
        <phase duration="3"  state="yyr"/>
        <phase duration="5"  state="rrG"/>
        <phase duration="5"  state="rrr"/>
    </tlLogic>
    <tlLogic id="7688029789" type="actuated" programID="0" offset="0">
        <phase duration="82" state="G" minDur="5" maxDur="50"/>
        <phase duration="3"  state="y"/>
        <phase duration="5"  state="r"/>
    </tlLogic>
    <tlLogic id="8721279777" type="actuated" programID="0" offset="0">
        <phase duration="82" state="G" minDur="5" maxDur="50"/>
        <phase duration="3"  state="y"/>
        <phase duration="5"  state="r"/>
    </tlLogic>
    <tlLogic id="GS_cluster_11761837984_11761856672_2095827231_61374253" type="actuated" programID="0" offset="0">
        <phase duration="37" state="rrrgGGGGrG" minDur="5" maxDur="50"/>
        <phase duration="5"  state="rrrgGGGGrr"/>
        <phase duration="3"  state="rrryyyyyrr"/>
        <phase duration="36" state="gggrrrrrGG" minDur="5" maxDur="50"/>
        <phase duration="5"  state="gggrrrrrrr"/>
        <phase duration="3"  state="yyyrrrrrrr"/>
        <phase duration="1"  state="rrrrrrrrrr"/>
    </tlLogic>
    <tlLogic id="GS_cluster_1534948628_4777491307_61343990_6470501635_#3more" type="actuated" programID="0" offset="0">
        <phase duration="37" state="GggGGGgGGggggggggggrrrrrrrr" minDur="5" maxDur="50"/>
        <phase duration="3"  state="yyyyyyyyyyyyggyygyyrrrrrrrr"/>
        <phase duration="32" state="rrrrrrrrrrrrGgrrGrrGGgGGGrG" minDur="5" maxDur="50"/>
        <phase duration="5"  state="rrrrrrrrrrrrGgrrGrrGGgGrrrr"/>
        <phase duration="3"  state="rrrrrrrrrrrryyrryrryyyyrrrr"/>
        <phase duration="5"  state="rrrrrrrrrrrrrrrrrrrrrrrGGGG"/>
        <phase duration="5"  state="rrrrrrrrrrrrrrrrrrrrrrrrrrr"/>
    </tlLogic>
    <tlLogic id="GS_cluster_1830597858_1830597861_373201043_61356529" type="actuated" programID="0" offset="0">
        <phase duration="37" state="rrGgGGgGrr" minDur="5" maxDur="50"/>
        <phase duration="5"  state="rrGgGGgrrr"/>
        <phase duration="3"  state="rryyyyyrrr"/>
        <phase duration="37" state="ggrrrrrrGG" minDur="5" maxDur="50"/>
        <phase duration="5"  state="ggrrrrrrrr"/>
        <phase duration="3"  state="yyrrrrrrrr"/>
    </tlLogic>
    <tlLogic id="GS_cluster_2095799378_6754036266" type="actuated" programID="0" offset="0">
        <phase duration="36" state="rrrrGgGGggGrr" minDur="5" maxDur="50"/>
        <phase duration="5"  state="rrrrGgGGggrrr"/>
        <phase duration="3"  state="rrrryyyyyyrrr"/>
        <phase duration="1"  state="rrrrrrrrrrrrr"/>
        <phase duration="36" state="gggGrrrrrrrGG" minDur="5" maxDur="50"/>
        <phase duration="5"  state="gggGrrrrrrrrr"/>
        <phase duration="3"  state="yyyyrrrrrrrrr"/>
        <phase duration="1"  state="rrrrrrrrrrrrr"/>
    </tlLogic>
    <tlLogic id="GS_cluster_2500921856_2500921857_2501119769_5599241976_#3more" type="actuated" programID="0" offset="0">
        <phase duration="12" state="rrrrrGgGGgrrrgGrGGGr" minDur="5" maxDur="50"/>
        <phase duration="5"  state="rrrrrGgGGgrrrgrrrrrr"/>
        <phase duration="3"  state="rrrrryyyyyrrryrrrrrr"/>
        <phase duration="3"  state="rrrrrrrrrrrrrrrrrrrr"/>
        <phase duration="14" state="rrrrrrrrrrgrrrGGrGGG" minDur="5" maxDur="50"/>
        <phase duration="5"  state="rrrrrrrrrrgrrrrrrrrr"/>
        <phase duration="3"  state="rrrrrrrrrryrrrrrrrrr"/>
        <phase duration="14" state="ggGGGrrrrrrrrrrGGrGG" minDur="5" maxDur="50"/>
        <phase duration="5"  state="ggGGGrrrrrrrrrrrrrrr"/>
        <phase duration="3"  state="yyyyyrrrrrrrrrrrrrrr"/>
        <phase duration="1"  state="rrrrrrrrrrrrrrrrrrrr"/>
        <phase duration="14" state="rrrrrrrrrrrggrGGGGrG" minDur="5" maxDur="50"/>
        <phase duration="5"  state="rrrrrrrrrrrggrrrrrrr"/>
        <phase duration="3"  state="rrrrrrrrrrryyrrrrrrr"/>
    </tlLogic>
    <tlLogic id="GS_cluster_5599241970_5599241972_5599241973_61374245" type="actuated" programID="0" offset="0">
        <phase duration="37" state="rrrGGGgGrGr" minDur="5" maxDur="50"/>
        <phase duration="5"  state="rrrGGGgrrrr"/>
        <phase duration="3"  state="rrryyyyrrrr"/>
        <phase duration="37" state="gGGrrrrrGrG" minDur="5" maxDur="50"/>
        <phase duration="5"  state="gGGrrrrrrrr"/>
        <phase duration="3"  state="yyyrrrrrrrr"/>
    </tlLogic>
    <tlLogic id="GS_cluster_5757118395_5757118396_5757118397_5757118398_#1more" type="actuated" programID="0" offset="0">
        <phase duration="37" state="ggGGGrrrrrrrrrGrG" minDur="5" maxDur="50"/>
        <phase duration="5"  state="ggGGGrrrrrrrrrrrr"/>
        <phase duration="3"  state="yyyyyrrrrrrrrrrrr"/>
        <phase duration="36" state="rrrrrgGggGGGgGrGr" minDur="5" maxDur="50"/>
        <phase duration="5"  state="rrrrrgGggGGGgrrrr"/>
        <phase duration="3"  state="rrrrryyyyyyyyrrrr"/>
        <phase duration="1"  state="rrrrrrrrrrrrrrrrr"/>
    </tlLogic>
    <tlLogic id="GS_cluster_61339955_7617294165_7617297091_7617297131_#1more" type="actuated" programID="0" offset="0">
        <phase duration="37" state="gGGGrrrrGrG" minDur="5" maxDur="50"/>
        <phase duration="5"  state="gGGGrrrrrrr"/>
        <phase duration="3"  state="yyyyrrrrrrr"/>
        <phase duration="37" state="rrrrGggGrGr" minDur="5" maxDur="50"/>
        <phase duration="5"  state="rrrrGggrrrr"/>
        <phase duration="3"  state="rrrryyyrrrr"/>
    </tlLogic>
    <tlLogic id="GS_cluster_61339957_7617294146_7617294166_7617297092_#1more" type="actuated" programID="0" offset="0">
        <phase duration="37" state="rrGGGgrGrG" minDur="5" maxDur="50"/>
        <phase duration="5"  state="rrGGGgrrrr"/>
        <phase duration="3"  state="rryyyyrrrr"/>
        <phase duration="37" state="gGrrrrGrGr" minDur="5" maxDur="50"/>
        <phase duration="5"  state="gGrrrrrrrr"/>
        <phase duration="3"  state="yyrrrrrrrr"/>
    </tlLogic>
    <tlLogic id="GS_cluster_61340495_7617294164_7617297090_7617297240_#1more" type="actuated" programID="0" offset="0">
        <phase duration="37" state="GgggGgrrrrrGrGr" minDur="5" maxDur="50"/>
        <phase duration="5"  state="GgggGgrrrrrrrrr"/>
        <phase duration="3"  state="yyyyyyrrrrrrrrr"/>
        <phase duration="37" state="rrrrrrgGGGgrGrG" minDur="5" maxDur="50"/>
        <phase duration="5"  state="rrrrrrgGGGgrrrr"/>
        <phase duration="3"  state="rrrrrryyyyyrrrr"/>
    </tlLogic>
    <tlLogic id="GS_cluster_61340743_6540742198_6540742204" type="actuated" programID="0" offset="0">
        <phase duration="37" state="rrrgGGGrGr" minDur="5" maxDur="50"/>
        <phase duration="5"  state="rrrgGGrrrr"/>
        <phase duration="3"  state="rrryyyrrrr"/>
        <phase duration="37" state="GGgrrrrGrG" minDur="5" maxDur="50"/>
        <phase duration="5"  state="GGgrrrrrrr"/>
        <phase duration="3"  state="yyyrrrrrrr"/>
    </tlLogic>
    <tlLogic id="GS_cluster_61341216_7617294163_7617297089_7617297158_#1more" type="actuated" programID="0" offset="0">
        <phase duration="32" state="GgggrrrrGGr" minDur="5" maxDur="50"/>
        <phase duration="5"  state="Ggggrrrrrrr"/>
        <phase duration="3"  state="yyyyrrrrrrr"/>
        <phase duration="1"  state="rrrrrrrrrrr"/>
        <phase duration="31" state="rrrrGggGrGr" minDur="5" maxDur="50"/>
        <phase duration="5"  state="rrrrGggrrrr"/>
        <phase duration="3"  state="rrrryyyrrrr"/>
        <phase duration="5"  state="rrrrrrrGGGG"/>
        <phase duration="5"  state="rrrrrrrrrrr"/>
    </tlLogic>
    <tlLogic id="GS_cluster_61341291_7675865360_7688029839_7732861161_#1more" type="actuated" programID="0" offset="0">
        <phase duration="32" state="gGggGGggrrrrrrrgGggGGggrGrG" minDur="5" maxDur="50"/>
        <phase duration="5"  state="gGggGGggrrrrrrrgGggGGggrrrr"/>
        <phase duration="3"  state="yyyyyyggrrrrrrryyyyyyggrrrr"/>
        <phase duration="6"  state="rrrrrrGGrrrrrrrrrrrrrGGrrrr" minDur="5" maxDur="50"/>
        <phase duration="3"  state="rrrrrryyrrrrrrrrrrrrryyrrrr"/>
        <phase duration="32" state="rrrrrrrrggGgGgGrrrrrrrrGrGr" minDur="5" maxDur="50"/>
        <phase duration="5"  state="rrrrrrrrggGgGgGrrrrrrrrrrrr"/>
        <phase duration="3"  state="rrrrrrrryyyyyyyrrrrrrrrrrrr"/>
        <phase duration="1"  state="rrrrrrrrrrrrrrrrrrrrrrrrrrr"/>
    </tlLogic>
    <tlLogic id="GS_cluster_61342301_6540279203_7513205972_7513205973" type="actuated" programID="0" offset="0">
        <phase duration="37" state="gGgrrrrrrrGgGGggrGrG" minDur="5" maxDur="50"/>
        <phase duration="5"  state="gGgrrrrrrrGgGGggrrrr"/>
        <phase duration="3"  state="yyyrrrrrrryyyyyyrrrr"/>
        <phase duration="1"  state="rrrrrrrrrrrrrrrrrrrr"/>
        <phase duration="36" state="rrrgGggGGGrrrrrrGrGr" minDur="5" maxDur="50"/>
        <phase duration="5"  state="rrrgGggGGGrrrrrrrrrr"/>
        <phase duration="3"  state="rrryyyyyyyrrrrrrrrrr"/>
    </tlLogic>
    <tlLogic id="GS_cluster_61348302_7634061960_7634061961_7634061963" type="actuated" programID="0" offset="0">
        <phase duration="37" state="gGgrrrrrrGgggGrrGrr" minDur="5" maxDur="50"/>
        <phase duration="5"  state="gGgrrrrrrGgggrrrrrr"/>
        <phase duration="3"  state="yyyrrrrrryyyyrrrrrr"/>
        <phase duration="37" state="rrrgGggGGrrrrrGGrGG" minDur="5" maxDur="50"/>
        <phase duration="5"  state="rrrgGggGGrrrrrrrrrr"/>
        <phase duration="3"  state="rrryyyyyyrrrrrrrrrr"/>
    </tlLogic>
    <tlLogic id="GS_cluster_61354256_61385322_7636322221_7636322224_#4more" type="actuated" programID="0" offset="0">
        <phase duration="20" state="rggGGGggrrrrrrGrGrG" minDur="5" maxDur="50"/>
        <phase duration="5"  state="rggGGGggrrrrrrrrrrr"/>
        <phase duration="3"  state="ryyyyyyyrrrrrrrrrrr"/>
        <phase duration="2"  state="rrrrrrrrrrrrrrrrrrr"/>
        <phase duration="21" state="GrrrrrrrrrrrrrGrGGG" minDur="5" maxDur="50"/>
        <phase duration="5"  state="Grrrrrrrrrrrrrrrrrr"/>
        <phase duration="3"  state="yrrrrrrrrrrrrrrrrrr"/>
        <phase duration="21" state="rrrrrrrrGGGgggGGrGr" minDur="5" maxDur="50"/>
        <phase duration="5"  state="rrrrrrrrGGGgggrrrrr"/>
        <phase duration="3"  state="rrrrrrrryyyyyyrrrrr"/>
        <phase duration="2"  state="rrrrrrrrrrrrrrrrrrr"/>
    </tlLogic>
    <tlLogic id="GS_cluster_61354590_7619054123_7619054124_7619054125_#1more" type="actuated" programID="0" offset="0">
        <phase duration="37" state="rrrrrrggGGGrGr" minDur="5" maxDur="50"/>
        <phase duration="5"  state="rrrrrrggGGrrrr"/>
        <phase duration="3"  state="rrrrrryyyyrrrr"/>
        <phase duration="37" state="gGgGGgrrrrrGrG" minDur="5" maxDur="50"/>
        <phase duration="5"  state="gGgGGgrrrrrrrr"/>
        <phase duration="3"  state="yyyyyyrrrrrrrr"/>
    </tlLogic>
    <tlLogic id="GS_cluster_61375926_7623522414_7634061737_9897510904" type="actuated" programID="0" offset="0">
        <phase duration="37" state="gGgrrrGggrGrrG" minDur="5" maxDur="50"/>
        <phase duration="5"  state="gGgrrrGggrrrrr"/>
        <phase duration="3"  state="yyyrrryyyrrrrr"/>
        <phase duration="37" state="rrrgGgrrrGrGGr" minDur="5" maxDur="50"/>
        <phase duration="5"  state="rrrgGgrrrrrrrr"/>
        <phase duration="3"  state="rrryyyrrrrrrrr"/>
    </tlLogic>
    <tlLogic id="GS_cluster_61376981_7164884744_7164884745_7164884746_#1more" type="actuated" programID="0" offset="0">
        <phase duration="27" state="gGGGgrrrrrrrrrGGgGrrG" minDur="5" maxDur="50"/>
        <phase duration="5"  state="gGGGgrrrrrrrrrGGgrrrr"/>
        <phase duration="3"  state="gGGGgrrrrrrrrryyyrrrr"/>
        <phase duration="6"  state="GGGGGrrrrrrrrrrrrrrrr" minDur="5" maxDur="50"/>
        <phase duration="3"  state="yyyyyrrrrrrrrrrrrrrrr"/>
        <phase duration="27" state="rrrrrGggggGGGgrrrrGrr" minDur="5" maxDur="50"/>
        <phase duration="5"  state="rrrrrGggggGGGgrrrrrrr"/>
        <phase duration="3"  state="rrrrryyyyyyyyyrrrrrrr"/>
        <phase duration="1"  state="rrrrrrrrrrrrrrrrrrrrr"/>
        <phase duration="5"  state="rrrrrrrrrrrrrrrrrGGGG"/>
        <phase duration="5"  state="rrrrrrrrrrrrrrrrrrrrr"/>
    </tlLogic>
    <tlLogic id="GS_cluster_61486013_7634061971_7634061973_7634061974" type="actuated" programID="0" offset="0">
        <phase duration="37" state="GggGGgrrrrrrG" minDur="5" maxDur="50"/>
        <phase duration="5"  state="GggGGgrrrrrrr"/>
        <phase duration="3"  state="yyyyyyrrrrrrr"/>
        <phase duration="37" state="rrrrrrgGGgGGr" minDur="5" maxDur="50"/>
        <phase duration="5"  state="rrrrrrgGGgrrr"/>
        <phase duration="3"  state="rrrrrryyyyrrr"/>
    </tlLogic>
    <tlLogic id="GS_cluster_61588040_7636322272_7636322273_7636322274_#1more" type="actuated" programID="0" offset="0">
        <phase duration="37" state="gGGGGrrrrrGrG" minDur="5" maxDur="50"/>
        <phase duration="5"  state="gGGGGrrrrrrrr"/>
        <phase duration="3"  state="yyyyyrrrrrrrr"/>
        <phase duration="37" state="rrrrrgGggGrGr" minDur="5" maxDur="50"/>
        <phase duration="5"  state="rrrrrgGggrrrr"/>
        <phase duration="3"  state="rrrrryyyyrrrr"/>
    </tlLogic>
    <tlLogic id="cluster_1038884882_61341689" type="actuated" programID="0" offset="0">
        <phase duration="36" state="rrrrrrrrrGGGGGr" minDur="5" maxDur="50"/>
        <phase duration="3"  state="rrrrrrrrryyyyyr"/>
        <phase duration="35" state="GGgGGGgggrrrrrr" minDur="5" maxDur="50"/>
        <phase duration="3"  state="yyyyyyyyyrrrrrr"/>
        <phase duration="3"  state="rrrrrrrrrrrrrrr"/>
        <phase duration="5"  state="rrrrrrrrrrrrrrG"/>
        <phase duration="5"  state="rrrrrrrrrrrrrrr"/>
    </tlLogic>
    <tlLogic id="cluster_1097411181_1989248085_4454612335_5514806962_#2more" type="actuated" programID="0" offset="0">
        <phase duration="33" state="rrrrrgGgggGGr" minDur="5" maxDur="50"/>
        <phase duration="5"  state="rrrrrgGgggrrr"/>
        <phase duration="3"  state="rrrrryygggrrr"/>
        <phase duration="6"  state="rrrrrrrGGGrrr" minDur="5" maxDur="50"/>
        <phase duration="3"  state="rrrrrrryyyrrr"/>
        <phase duration="32" state="GgGGGrrrrrrrG" minDur="5" maxDur="50"/>
        <phase duration="5"  state="GgGGGrrrrrrrr"/>
        <phase duration="3"  state="yyyyyrrrrrrrr"/>
    </tlLogic>
    <tlLogic id="cluster_1097411760_11646605550_11895571489_11895571497_#9more" type="actuated" programID="0" offset="0">
        <phase duration="16" state="gGggggrrrrrrrrrrrrrrrrrrGGGGggrrrrrrGrrG" minDur="5" maxDur="50"/>
        <phase duration="5"  state="gGggggrrrrrrrrrrrrrrrrrrGGGGggrrrrrrrrrr"/>
        <phase duration="3"  state="yyyyyyrrrrrrrrrrrrrrrrrryyyyyyrrrrrrrrrr"/>
        <phase duration="23" state="rrrrrrGGggggggggggrrrrrrrrrrrrGGGGggrrrr" minDur="5" maxDur="50"/>
        <phase duration="3"  state="rrrrrryyyyyyyyyyyyrrrrrrrrrrrryyyyyyrrrr"/>
        <phase duration="2"  state="rrrrrrrrrrrrrrrrrrrrrrrrrrrrrrrrrrrrrrrr"/>
        <phase duration="18" state="rrrrrrrrrrrrrrrrrrggGGGGrrrrrrrrrrrrGGrr" minDur="5" maxDur="50"/>
        <phase duration="5"  state="rrrrrrrrrrrrrrrrrrggGGGGrrrrrrrrrrrrrrrr"/>
        <phase duration="3"  state="rrrrrrrrrrrrrrrrrryyyyyyrrrrrrrrrrrrrrrr"/>
        <phase duration="2"  state="rrrrrrrrrrrrrrrrrrrrrrrrrrrrrrrrrrrrrrrr"/>
        <phase duration="5"  state="rrrrrrrrrrrrrrrrrrrrrrrrrrrrrrrrrrrrGGGG"/>
        <phase duration="5"  state="rrrrrrrrrrrrrrrrrrrrrrrrrrrrrrrrrrrrrrrr"/>
    </tlLogic>
    <tlLogic id="cluster_1132394669_1132394754_1830597839_7707946394" type="actuated" programID="0" offset="0">
        <phase duration="32" state="GGggrrrGr" minDur="5" maxDur="50"/>
        <phase duration="5"  state="GGggrrrrr"/>
        <phase duration="3"  state="yyyyrrrrr"/>
        <phase duration="32" state="rrrrGGGrr" minDur="5" maxDur="50"/>
        <phase duration="5"  state="rrrrGGrrr"/>
        <phase duration="3"  state="rrrryyrrr"/>
        <phase duration="5"  state="rrrrrrGGG"/>
        <phase duration="5"  state="rrrrrrrrr"/>
    </tlLogic>
    <tlLogic id="cluster_11895267758_11895267759_1196431205_2095827220" type="actuated" programID="0" offset="0">
        <phase duration="19" state="GGGgrrrGggrrrrGr" minDur="5" maxDur="50"/>
        <phase duration="5"  state="GGGgrrrGggrrrrrr"/>
        <phase duration="3"  state="yyyyrrrGggrrrrrr"/>
        <phase duration="6"  state="rrrrrrrGGGrrrrrr" minDur="5" maxDur="50"/>
        <phase duration="3"  state="rrrrrrryyyrrrrrr"/>
        <phase duration="19" state="rrrrgGgrrrrrrGrG" minDur="5" maxDur="50"/>
        <phase duration="5"  state="rrrrgGgrrrrrrrrr"/>
        <phase duration="3"  state="rrrryyyrrrrrrrrr"/>
        <phase duration="19" state="rrrrrrrrrrggGGGG" minDur="5" maxDur="50"/>
        <phase duration="5"  state="rrrrrrrrrrggGrrr"/>
        <phase duration="3"  state="rrrrrrrrrryyyrrr"/>
    </tlLogic>
    <tlLogic id="cluster_11895538936_61370573_61476421_6185148332_#4more" type="actuated" programID="0" offset="0">
        <phase duration="37" state="rrgggGGr" minDur="5" maxDur="50"/>
        <phase duration="3"  state="rrgggyyr"/>
        <phase duration="6"  state="rrGGGrrr" minDur="5" maxDur="50"/>
        <phase duration="3"  state="rryyyrrr"/>
        <phase duration="32" state="GgrrrrrG" minDur="5" maxDur="50"/>
        <phase duration="5"  state="Ggrrrrrr"/>
        <phase duration="3"  state="yyrrrrrr"/>
        <phase duration="1"  state="rrrrrrrr"/>
    </tlLogic>
    <tlLogic id="cluster_11895538938_12027184468_2936105879_2963593175_#5more" type="actuated" programID="0" offset="0">
        <phase duration="28" state="rrrgggGGGGrrrrrGggggGGgggrrrr" minDur="5" maxDur="50"/>
        <phase duration="3"  state="rrrgggyyyyrrrrryggggyygggrrrr"/>
        <phase duration="6"  state="rrrgggrrrrrrrrrrGgggrrGGgrrrr" minDur="5" maxDur="50"/>
        <phase duration="3"  state="rrryyyrrrrrrrrrryyyyrryyyrrrr"/>
        <phase duration="23" state="gGgrrrrrrrGGGggrrrrrrrrrrrrGr" minDur="5" maxDur="50"/>
        <phase duration="5"  state="gGgrrrrrrrGGGggrrrrrrrrrrrrrr"/>
        <phase duration="3"  state="yyyrrrrrrrGGGggrrrrrrrrrrrrrr"/>
        <phase duration="6"  state="rrrrrrrrrrGGGGGrrrrrrrrrrrrrr" minDur="5" maxDur="50"/>
        <phase duration="3"  state="rrrrrrrrrryyyyyrrrrrrrrrrrrrr"/>
        <phase duration="5"  state="rrrrrrrrrrrrrrrrrrrrrrrrrGGGG"/>
        <phase duration="5"  state="rrrrrrrrrrrrrrrrrrrrrrrrrrrrr"/>
    </tlLogic>
    <tlLogic id="cluster_11895571495_11895571503_1325873756_7771798229_#1more" type="actuated" programID="0" offset="0">
        <phase duration="68" state="GggGgggggGGGgrr" minDur="5" maxDur="50"/>
        <phase duration="3"  state="yyyygggggyyygrr"/>
        <phase duration="6"  state="rrrrGggGgrrrGrr" minDur="5" maxDur="50"/>
        <phase duration="3"  state="rrrryyyyyrrryrr"/>
        <phase duration="5"  state="rrrrrrrrrrrrrGG"/>
        <phase duration="5"  state="rrrrrrrrrrrrrrr"/>
    </tlLogic>
    <tlLogic id="cluster_1196977536_61341313_61355653_61355654_#8more" type="actuated" programID="0" offset="0">
        <phase duration="17" state="GGggrrrrrgGggrrrrGrrGrrr" minDur="5" maxDur="50"/>
        <phase duration="5"  state="GGggrrrrrgGggrrrrrrrrrrr"/>
        <phase duration="3"  state="yyggrrrrryyggrrrrrrrrrrr"/>
        <phase duration="6"  state="rrGGrrrrrrrGGrrrrrrrrrrr" minDur="5" maxDur="50"/>
        <phase duration="3"  state="rryyrrrrrrryyrrrrrrrrrrr"/>
        <phase duration="2"  state="rrrrrrrrrrrrrrrrrrrrrrrr"/>
        <phase duration="18" state="rrrrrrrrrrrrrgGggrGGrGGG" minDur="5" maxDur="50"/>
        <phase duration="5"  state="rrrrrrrrrrrrrgGggrrrrrrr"/>
        <phase duration="3"  state="rrrrrrrrrrrrryyyyrrrrrrr"/>
        <phase duration="1"  state="rrrrrrrrrrrrrrrrrrrrrrrr"/>
        <phase duration="18" state="rrrrgGGGGrrrrrrrrrGrGrGG" minDur="5" maxDur="50"/>
        <phase duration="5"  state="rrrrgGGGGrrrrrrrrrrrrrrr"/>
        <phase duration="3"  state="rrrryyyyyrrrrrrrrrrrrrrr"/>
        <phase duration="1"  state="rrrrrrrrrrrrrrrrrrrrrrrr"/>
    </tlLogic>
    <tlLogic id="cluster_1325838536_1830597865_345446433_61340485" type="actuated" programID="0" offset="0">
        <phase duration="37" state="rrrgGGGGrr" minDur="5" maxDur="50"/>
        <phase duration="5"  state="rrrgGGGrrr"/>
        <phase duration="3"  state="rrryyyyrrr"/>
        <phase duration="1"  state="rrrrrrrrrr"/>
        <phase duration="36" state="ggGrrrrrGG" minDur="5" maxDur="50"/>
        <phase duration="5"  state="ggGrrrrrrr"/>
        <phase duration="3"  state="yyyrrrrrrr"/>
    </tlLogic>
    <tlLogic id="cluster_1411414594_1522224154_5514811218_61361176_#4more" type="actuated" programID="0" offset="0">
        <phase duration="25" state="rrrrrrgGgGggrrrrrrrgGGGggGrrGr" minDur="5" maxDur="50"/>
        <phase duration="5"  state="rrrrrrgGgGggrrrrrrrgGGGggrrrrr"/>
        <phase duration="3"  state="rrrrrryyyyggrrrrrrryyyyggrrrrr"/>
        <phase duration="6"  state="rrrrrrrrrrGGrrrrrrrrrrrGGrrrrr" minDur="5" maxDur="50"/>
        <phase duration="3"  state="rrrrrrrrrryyrrrrrrrrrrryyrrrrr"/>
        <phase duration="1"  state="rrrrrrrrrrrrrrrrrrrrrrrrrrrrrr"/>
        <phase duration="26" state="ggGgggrrrrrrggGGgggrrrrrrrGGrG" minDur="5" maxDur="50"/>
        <phase duration="5"  state="ggGgggrrrrrrggGGgggrrrrrrrrrrr"/>
        <phase duration="3"  state="yyygggrrrrrryyyygggrrrrrrrrrrr"/>
        <phase duration="6"  state="rrrGGGrrrrrrrrrrGGGrrrrrrrrrrr" minDur="5" maxDur="50"/>
        <phase duration="3"  state="rrryyyrrrrrrrrrryyyrrrrrrrrrrr"/>
        <phase duration="4"  state="rrrrrrrrrrrrrrrrrrrrrrrrrrrrrr"/>
    </tlLogic>
    <tlLogic id="cluster_1522224088_7616280449_7617345283" type="actuated" programID="0" offset="0">
        <phase duration="37" state="rGGG" minDur="5" maxDur="50"/>
        <phase duration="5"  state="rGGr"/>
        <phase duration="3"  state="ryyr"/>
        <phase duration="42" state="Grrr" minDur="5" maxDur="50"/>
        <phase duration="3"  state="yrrr"/>
    </tlLogic>
    <tlLogic id="cluster_1522224147_1522224270_1522224470_6162811288_#5more" type="actuated" programID="0" offset="0">
        <phase duration="13" state="rrrrrrrgGGggGGggrrrrrrgGgGGgggrrrrrrGGr" minDur="5" maxDur="50"/>
        <phase duration="5"  state="rrrrrrrgGGggGGggrrrrrrgGgGGgggrrrrrrrrr"/>
        <phase duration="3"  state="rrrrrrryyyyyyyggrrrrrryygyygggrrrrrrrrr"/>
        <phase duration="6"  state="rrrrrrrrrrrrrrGGrrrrrrrrGrrGGGrrrrrrrrr" minDur="5" maxDur="50"/>
        <phase duration="3"  state="rrrrrrrrrrrrrryyrrrrrrrryrryyyrrrrrrrrr"/>
        <phase duration="2"  state="rrrrrrrrrrrrrrrrrrrrrrrrrrrrrrrrrrrrrrr"/>
        <phase duration="14" state="rrrrrrrrrrrrrrrrGGGgggrrrrrrrrGGgggrrrG" minDur="5" maxDur="50"/>
        <phase duration="5"  state="rrrrrrrrrrrrrrrrGGGgggrrrrrrrrGGgggrrrr"/>
        <phase duration="3"  state="rrrrrrrrrrrrrrrryyygggrrrrrrrryygggrrrr"/>
        <phase duration="6"  state="rrrrrrrrrrrrrrrrrrrGGGrrrrrrrrrrGGGrrrr" minDur="5" maxDur="50"/>
        <phase duration="3"  state="rrrrrrrrrrrrrrrrrrryyyrrrrrrrrrryyyrrrr"/>
        <phase duration="3"  state="rrrrrrrrrrrrrrrrrrrrrrrrrrrrrrrrrrrrrrr"/>
        <phase duration="14" state="GGGGGgGrrrrrrrrrrrrrrrrrrrrrrrrrrrrGrrG" minDur="5" maxDur="50"/>
        <phase duration="5"  state="GGGGGgGrrrrrrrrrrrrrrrrrrrrrrrrrrrrrrrr"/>
        <phase duration="3"  state="yyyyyyyrrrrrrrrrrrrrrrrrrrrrrrrrrrrrrrr"/>
        <phase duration="2"  state="rrrrrrrrrrrrrrrrrrrrrrrrrrrrrrrrrrrrrrr"/>
    </tlLogic>
    <tlLogic id="cluster_1545071815_2381946702_61445356_61552734_#2more" type="actuated" programID="0" offset="0">
        <phase duration="37" state="rrrrgGGggrrrrGGGggGrr" minDur="5" maxDur="50"/>
        <phase duration="5"  state="rrrrgGGggrrrrGGGggrrr"/>
        <phase duration="3"  state="rrrryyyyyrrrryyyyyrrr"/>
        <phase duration="37" state="gGggrrrrrgGggrrrrrrGG" minDur="5" maxDur="50"/>
        <phase duration="5"  state="gGggrrrrrgGggrrrrrrrr"/>
        <phase duration="3"  state="yyyyrrrrryyyyrrrrrrrr"/>
    </tlLogic>
    <tlLogic id="cluster_1830597776_345445637_61341319" type="actuated" programID="0" offset="0">
        <phase duration="35" state="GGGGgrrrrrGr" minDur="5" maxDur="50"/>
        <phase duration="5"  state="GGGGgrrrrrrr"/>
        <phase duration="3"  state="yyyyyrrrrrrr"/>
        <phase duration="2"  state="rrrrrrrrrrrr"/>
        <phase duration="35" state="rrrrrgggGGrG" minDur="5" maxDur="50"/>
        <phase duration="5"  state="rrrrrgggGrrr"/>
        <phase duration="3"  state="rrrrryyyyrrr"/>
        <phase duration="2"  state="rrrrrrrrrrrr"/>
    </tlLogic>
    <tlLogic id="cluster_1830597813_345445907_61340829" type="actuated" programID="0" offset="0">
        <phase duration="36" state="rrrrgggGrG" minDur="5" maxDur="50"/>
        <phase duration="5"  state="rrrrgggrrr"/>
        <phase duration="3"  state="rrrryyyrrr"/>
        <phase duration="2"  state="rrrrrrrrrr"/>
        <phase duration="35" state="GGGGrrrrGr" minDur="5" maxDur="50"/>
        <phase duration="5"  state="GGGGrrrrrr"/>
        <phase duration="3"  state="yyyyrrrrrr"/>
        <phase duration="1"  state="rrrrrrrrrr"/>
    </tlLogic>
    <tlLogic id="cluster_1942196887_2931780658_61469330_7637468293" type="actuated" programID="0" offset="0">
        <phase duration="33" state="GgggGGgrrrrrGrG" minDur="5" maxDur="50"/>
        <phase duration="5"  state="GgggGGgrrrrrrrr"/>
        <phase duration="3"  state="Gggyyyyrrrrrrrr"/>
        <phase duration="6"  state="GGGrrrrrrrrrrrr" minDur="5" maxDur="50"/>
        <phase duration="3"  state="yyyrrrrrrrrrrrr"/>
        <phase duration="32" state="rrrrrrrgGGgGrGr" minDur="5" maxDur="50"/>
        <phase duration="5"  state="rrrrrrrgGGgrrrr"/>
        <phase duration="3"  state="rrrrrrryyyyrrrr"/>
    </tlLogic>