<?xml version="1.0" encoding="UTF-8"?>

<!-- generated on 2024-10-29 20:01:57.627277 by osmWebWizard.py v1_21_0+0000-d7b3b481c43
<configuration>
    <net-file value="C:\Windows\system32\2024-10-29-20-01-42\osm.net.xml.gz"/>
    <output-trip-file value="C:\Windows\system32\2024-10-29-20-01-42\osm.bicycle.trips.xml"/>
    <route-file value="C:\Windows\system32\2024-10-29-20-01-42\osm.bicycle.rou.xml"/>
    <prefix value="bike"/>
    <trip-attributes value="departLane=&quot;best&quot;"/>
    <fringe-start-attributes value="departSpeed=&quot;max&quot;"/>
    <vehicle-class value="bicycle"/>
    <fringe-factor value="2"/>
    <vclass value="bicycle"/>
    <via-edge-types value="highway.motorway,highway.motorway_link,highway.trunk_link,highway.primary_link,highway.secondary_link,highway.tertiary_link"/>
    <max-distance value="8000.0"/>
    <remove-loops value="True"/>
    <validate value="True"/>
    <insertion-density value="35.0"/>
</configuration>
-->

<!-- generated on 2024-10-29 20:01:57 by Eclipse SUMO duarouter Version 1.21.0
<duarouterConfiguration xmlns:xsi="http://www.w3.org/2001/XMLSchema-instance" xsi:noNamespaceSchemaLocation="http://sumo.dlr.de/xsd/duarouterConfiguration.xsd">

    <input>
        <net-file value="C:\Windows\system32\2024-10-29-20-01-42\osm.net.xml.gz"/>
        <route-files value="C:\Windows\system32\2024-10-29-20-01-42\osm.bicycle.trips.xml"/>
    </input>

    <output>
        <output-file value="C:\Windows\system32\2024-10-29-20-01-42\osm.bicycle.trips.xml.tmp"/>
        <alternatives-output value="NUL"/>
        <write-trips value="true"/>
    </output>

    <processing>
        <remove-loops value="true"/>
    </processing>

    <time>
        <begin value="0.0"/>
        <end value="3600.0"/>
    </time>

    <report>
        <no-warnings value="true"/>
        <ignore-errors value="true"/>
        <no-step-log value="true"/>
    </report>

</duarouterConfiguration>
-->

<routes xmlns:xsi="http://www.w3.org/2001/XMLSchema-instance" xsi:noNamespaceSchemaLocation="http://sumo.dlr.de/xsd/routes_file.xsd">
    <vType id="bike_bicycle" vClass="bicycle"/>
    <trip id="bike1" type="bike_bicycle" depart="3.08" departLane="best" departSpeed="max" from="-8645556#1" to="-8644647#0"/>
    <trip id="bike3" type="bike_bicycle" depart="9.24" departLane="best" from="8649873#0" to="-217801058#0"/>
    <trip id="bike4" type="bike_bicycle" depart="12.32" departLane="best" from="1166056604#1" to="-1115616585#0"/>
    <trip id="bike5" type="bike_bicycle" depart="15.40" departLane="best" from="825494585#3" to="426456594#2"/>
    <trip id="bike6" type="bike_bicycle" depart="18.48" departLane="best" from="-1112835160#5" to="-8639801#3"/>
    <trip id="bike7" type="bike_bicycle" depart="21.55" departLane="best" from="816934280#4" to="533600032#1"/>
    <trip id="bike10" type="bike_bicycle" depart="30.79" departLane="best" from="8646520#3" to="8637728#2"/>
    <trip id="bike11" type="bike_bicycle" depart="33.87" departLane="best" from="-985552044#4" to="-817361891#1"/>
    <trip id="bike12" type="bike_bicycle" depart="36.95" departLane="best" from="-8865420#4" to="1115616586#1"/>
    <trip id="bike14" type="bike_bicycle" depart="43.11" departLane="best" from="8647670#1" to="749812082#2"/>
    <trip id="bike16" type="bike_bicycle" depart="49.27" departLane="best" departSpeed="max" from="426456618#0" to="8865427#5"/>
    <trip id="bike19" type="bike_bicycle" depart="58.51" departLane="best" from="8648326#1" to="63104587#1"/>
    <trip id="bike20" type="bike_bicycle" depart="61.58" departLane="best" from="8637728#1" to="-1115616609#1"/>
    <trip id="bike21" type="bike_bicycle" depart="64.66" departLane="best" departSpeed="max" from="-862879202#1" to="-103553904#1"/>
    <trip id="bike22" type="bike_bicycle" depart="67.74" departLane="best" from="1117928632#0" to="-8646020#0"/>
    <trip id="bike23" type="bike_bicycle" depart="70.82" departLane="best" departSpeed="max" from="-1303174799" to="944109700#2"/>
    <trip id="bike24" type="bike_bicycle" depart="73.90" departLane="best" from="-815093895#1" to="1115616617#0"/>
    <trip id="bike25" type="bike_bicycle" depart="76.98" departLane="best" from="-1112835160#6" to="-8640929#3"/>
    <trip id="bike26" type="bike_bicycle" depart="80.06" departLane="best" from="-8644188#1" to="8652409#1"/>
    <trip id="bike27" type="bike_bicycle" depart="83.14" departLane="best" from="816934280#2" to="779927697"/>
    <trip id="bike31" type="bike_bicycle" depart="95.46" departLane="best" from="426487627#1" to="862879202#1"/>
    <trip id="bike32" type="bike_bicycle" depart="98.54" departLane="best" from="8647456#2" to="8645556#1"/>
    <trip id="bike33" type="bike_bicycle" depart="101.61" departLane="best" from="862886774#1" to="-1115616585#2"/>
    <trip id="bike34" type="bike_bicycle" depart="104.69" departLane="best" from="-8652430#0" to="-825494585#6"/>
    <trip id="bike35" type="bike_bicycle" depart="107.77" departLane="best" from="-817361891#1" to="8652430#0"/>
    <trip id="bike36" type="bike_bicycle" depart="110.85" departLane="best" from="8649075#1" to="-1112835160#1"/>
    <trip id="bike39" type="bike_bicycle" depart="120.09" departLane="best" departSpeed="max" from="-8642454#1" to="-8648527#0"/>
    <trip id="bike40" type="bike_bicycle" depart="123.17" departLane="best" departSpeed="max" from="468490261#0" to="-8652508#0"/>
    <trip id="bike41" type="bike_bicycle" depart="126.25" departLane="best" departSpeed="max" from="538554381#0" to="8650349#1"/>
    <trip id="bike42" type="bike_bicycle" depart="129.33" departLane="best" from="-1115616612" to="-8641950#3"/>
    <trip id="bike43" type="bike_bicycle" depart="132.41" departLane="best" from="-985552044#8" to="426456601#1"/>
    <trip id="bike44" type="bike_bicycle" depart="135.49" departLane="best" from="-1302402603#0" to="1115616610#0"/>
    <trip id="bike45" type="bike_bicycle" depart="138.57" departLane="best" departSpeed="max" from="-138827709#1" to="815093895#2"/>
    <trip id="bike47" type="bike_bicycle" depart="144.72" departLane="best" from="-1115616610#1" to="-537303955#0"/>
    <trip id="bike48" type="bike_bicycle" depart="147.80" departLane="best" from="-985552044#4" to="426487627#0"/>
    <trip id="bike49" type="bike_bicycle" depart="150.88" departLane="best" from="8865426#6" to="8648769"/>
    <trip id="bike50" type="bike_bicycle" depart="153.96" departLane="best" from="-104210747#5" to="8639801#3"/>
    <trip id="bike53" type="bike_bicycle" depart="163.20" departLane="best" departSpeed="max" from="-138827709#1" to="138827709#1"/>
    <trip id="bike54" type="bike_bicycle" depart="166.28" departLane="best" from="138827669#1" to="8865420#3"/>
    <trip id="bike55" type="bike_bicycle" depart="169.36" departLane="best" from="8649075#1" to="-8652508#0"/>
    <trip id="bike59" type="bike_bicycle" depart="181.67" departLane="best" from="63106623#1" to="-816934280#4"/>
    <trip id="bike60" type="bike_bicycle" depart="184.75" departLane="best" from="-8641950#3" to="500291586#0"/>
    <trip id="bike61" type="bike_bicycle" depart="187.83" departLane="best" from="8644931#3" to="426487624#1"/>
    <trip id="bike62" type="bike_bicycle" depart="190.91" departLane="best" from="-1032022089" to="1112835161#0"/>
    <trip id="bike63" type="bike_bicycle" depart="193.99" departLane="best" departSpeed="max" from="-1111965193" to="8651714#3"/>
    <trip id="bike64" type="bike_bicycle" depart="197.07" departLane="best" from="-8649468#0" to="8647456#6"/>
    <trip id="bike66" type="bike_bicycle" depart="203.23" departLane="best" from="-8649414#0" to="-8652508#1"/>
    <trip id="bike68" type="bike_bicycle" depart="209.39" departLane="best" departSpeed="max" from="-1115616615#1" to="8644931#2"/>
    <trip id="bike70" type="bike_bicycle" depart="215.55" departLane="best" from="-185734373#1" to="537303956#0"/>
    <trip id="bike71" type="bike_bicycle" depart="218.63" departLane="best" departSpeed="max" from="-8642454#1" to="8649468#0"/>
    <trip id="bike72" type="bike_bicycle" depart="221.70" departLane="best" from="1177983702" to="-8640929#6"/>
    <trip id="bike73" type="bike_bicycle" depart="224.78" departLane="best" from="426456625#2" to="-8640674#1"/>
    <trip id="bike74" type="bike_bicycle" depart="227.86" departLane="best" departSpeed="max" from="-816314830#1" to="1111965193"/>
    <trip id="bike75" type="bike_bicycle" depart="230.94" departLane="best" from="-985552044#4" to="817361884#1"/>
    <trip id="bike76" type="bike_bicycle" depart="234.02" departLane="best" from="1284186043#1" to="1323781936#1"/>
    <trip id="bike78" type="bike_bicycle" depart="240.18" departLane="best" departSpeed="max" from="-985552044#11" to="63106623#1"/>
    <trip id="bike79" type="bike_bicycle" depart="243.26" departLane="best" departSpeed="max" from="-862889528#1" to="8642454#0"/>
    <trip id="bike81" type="bike_bicycle" depart="249.42" departLane="best" from="862886774#1" to="8647456#18"/>
    <trip id="bike82" type="bike_bicycle" depart="252.50" departLane="best" from="-8648025#0" to="-1281777218#0"/>
    <trip id="bike83" type="bike_bicycle" depart="255.58" departLane="best" from="8638991#1" to="-825494585#2"/>
    <trip id="bike84" type="bike_bicycle" depart="258.66" departLane="best" departSpeed="max" from="-823316168#1" to="815093880#0"/>
    <trip id="bike85" type="bike_bicycle" depart="261.73" departLane="best" from="8652409#0" to="-63104562#3"/>
    <trip id="bike89" type="bike_bicycle" depart="274.05" departLane="best" from="1177983702" to="380662069#0"/>
    <trip id="bike90" type="bike_bicycle" depart="277.13" departLane="best" from="8639350#4" to="-825494585#7"/>
    <trip id="bike91" type="bike_bicycle" depart="280.21" departLane="best" from="944116814" to="-41940341#0"/>
    <trip id="bike92" type="bike_bicycle" depart="283.29" departLane="best" from="1115616616#1" to="1115616587"/>
    <trip id="bike93" type="bike_bicycle" depart="286.37" departLane="best" from="8648326#1" to="-8648727#2"/>
    <trip id="bike95" type="bike_bicycle" depart="292.53" departLane="best" from="1160123819" to="-944116814"/>
    <trip id="bike96" type="bike_bicycle" depart="295.61" departLane="best" from="8640788#0" to="8651340#0"/>
    <trip id="bike97" type="bike_bicycle" depart="298.69" departLane="best" from="1302402604#0" to="8648789#1"/>
    <trip id="bike98" type="bike_bicycle" depart="301.76" departLane="best" from="426484920" to="1115616613"/>
    <trip id="bike99" type="bike_bicycle" depart="304.84" departLane="best" from="99809128#2" to="8647670#2"/>
    <trip id="bike100" type="bike_bicycle" depart="307.92" departLane="best" from="8865426#2" to="8651358#1"/>
    <trip id="bike101" type="bike_bicycle" depart="311.00" departLane="best" from="8647670#1" to="-825494585#7"/>
    <trip id="bike102" type="bike_bicycle" depart="314.08" departLane="best" from="289468262#2" to="-8641560#2"/>
    <trip id="bike103" type="bike_bicycle" depart="317.16" departLane="best" from="1115616615#0" to="-1115616621"/>
    <trip id="bike104" type="bike_bicycle" depart="320.24" departLane="best" departSpeed="max" from="1115616585#0" to="970425316#1"/>
    <trip id="bike105" type="bike_bicycle" depart="323.32" departLane="best" departSpeed="max" from="-8642454#1" to="-8646506#0"/>
    <trip id="bike106" type="bike_bicycle" depart="326.40" departLane="best" from="138827669#2" to="1323781936#3"/>
    <trip id="bike107" type="bike_bicycle" depart="329.48" departLane="best" from="-8865420#4" to="985552044#2"/>
    <trip id="bike108" type="bike_bicycle" depart="332.56" departLane="best" from="426487627#0" to="8639801#1"/>
    <trip id="bike109" type="bike_bicycle" depart="335.64" departLane="best" from="-63104587#2" to="104210747#2"/>
    <trip id="bike110" type="bike_bicycle" depart="338.72" departLane="best" from="8865426#2" to="63104587#3"/>
    <trip id="bike111" type="bike_bicycle" depart="341.79" departLane="best" from="426456637" to="8642454#0"/>
    <trip id="bike112" type="bike_bicycle" depart="344.87" departLane="best" from="1115616604#0" to="63106577#0"/>
    <trip id="bike113" type="bike_bicycle" depart="347.95" departLane="best" from="380662077#0" to="8650337#1"/>
    <trip id="bike114" type="bike_bicycle" depart="351.03" departLane="best" departSpeed="max" from="-63104587#3" to="8865425#5"/>
    <trip id="bike115" type="bike_bicycle" depart="354.11" departLane="best" from="-1181032038#0" to="-8637744#0"/>
    <trip id="bike116" type="bike_bicycle" depart="357.19" departLane="best" departSpeed="max" from="591493144#0" to="-8640929#2"/>
    <trip id="bike117" type="bike_bicycle" depart="360.27" departLane="best" from="8637728#2" to="-63104562#3"/>
    <trip id="bike118" type="bike_bicycle" depart="363.35" departLane="best" from="8649630#5" to="-8648527#0"/>
    <trip id="bike119" type="bike_bicycle" depart="366.43" departLane="best" departSpeed="max" from="591493144#0" to="815093880#1"/>
    <trip id="bike120" type="bike_bicycle" depart="369.51" departLane="best" from="1147916780" to="63106577#0"/>
    <trip id="bike121" type="bike_bicycle" depart="372.59" departLane="best" from="-426456577" to="8652204#1"/>
    <trip id="bike122" type="bike_bicycle" depart="375.67" departLane="best" from="-816934280#1" to="8639350#4"/>
    <trip id="bike123" type="bike_bicycle" depart="378.75" departLane="best" from="-8638991#3" to="1281777361#1"/>
    <trip id="bike124" type="bike_bicycle" depart="381.82" departLane="best" from="825494585#3" to="104210747#5"/>
    <trip id="bike125" type="bike_bicycle" depart="384.90" departLane="best" from="8652508#1" to="8643791#0"/>
    <trip id="bike126" type="bike_bicycle" depart="387.98" departLane="best" from="-1115616617#0" to="289468262#0"/>
    <trip id="bike127" type="bike_bicycle" depart="391.06" departLane="best" from="-8644931#1" to="985552044#2"/>
    <trip id="bike128" type="bike_bicycle" depart="394.14" departLane="best" from="1115616616#1" to="-8641560#1"/>
    <trip id="bike129" type="bike_bicycle" depart="397.22" departLane="best" departSpeed="max" from="-8642454#1" to="8652204#1"/>
    <trip id="bike130" type="bike_bicycle" depart="400.30" departLane="best" from="-8649468#3" to="8649580#1"/>
    <trip id="bike131" type="bike_bicycle" depart="403.38" departLane="best" from="-1112835160#6" to="-823316168#0"/>
    <trip id="bike132" type="bike_bicycle" depart="406.46" departLane="best" from="8647432#1" to="8638352#1"/>
    <trip id="bike134" type="bike_bicycle" depart="412.62" departLane="best" departSpeed="max" from="817361883#0" to="103553906#4"/>
    <trip id="bike135" type="bike_bicycle" depart="415.70" departLane="best" from="8646962#1" to="104210747#5"/>
    <trip id="bike136" type="bike_bicycle" depart="418.78" departLane="best" from="823316159#1" to="8652409#2"/>
    <trip id="bike137" type="bike_bicycle" depart="421.85" departLane="best" from="-426487635#1" to="-537303955#0"/>
    <trip id="bike138" type="bike_bicycle" depart="424.93" departLane="best" from="1323781936#3" to="538554380#0"/>
    <trip id="bike139" type="bike_bicycle" depart="428.01" departLane="best" from="-8644931#3" to="749812082#2"/>
    <trip id="bike140" type="bike_bicycle" depart="431.09" departLane="best" from="8638991#0" to="-8640674#0"/>
    <trip id="bike141" type="bike_bicycle" depart="434.17" departLane="best" from="-815093895#0" to="-8652508#0"/>
    <trip id="bike142" type="bike_bicycle" depart="437.25" departLane="best" from="289468264#2" to="8650638#1"/>
    <trip id="bike143" type="bike_bicycle" depart="440.33" departLane="best" from="8647456#6" to="-380662067#2"/>
    <trip id="bike144" type="bike_bicycle" depart="443.41" departLane="best" from="1177983702" to="-943802147#1"/>
    <trip id="bike145" type="bike_bicycle" depart="446.49" departLane="best" from="-103553906#0" to="8645388#1"/>
    <trip id="bike147" type="bike_bicycle" depart="452.65" departLane="best" departSpeed="max" from="8640674#0" to="537307165#1"/>
    <trip id="bike148" type="bike_bicycle" depart="455.73" departLane="best" from="1196041856" to="-104210747#1"/>
    <trip id="bike149" type="bike_bicycle" depart="458.81" departLane="best" from="-1115616620#1" to="8649630#5"/>
    <trip id="bike151" type="bike_bicycle" depart="464.96" departLane="best" departSpeed="max" from="8647456#0" to="63104590#4"/>
    <trip id="bike154" type="bike_bicycle" depart="474.20" departLane="best" from="8646020#0" to="8648769"/>
    <trip id="bike155" type="bike_bicycle" depart="477.28" departLane="best" from="8650337#1" to="-8640929#4"/>
    <trip id="bike156" type="bike_bicycle" depart="480.36" departLane="best" from="8640674#1" to="426456738#1"/>
    <trip id="bike157" type="bike_bicycle" depart="483.44" departLane="best" from="8644957#1" to="8649630#8"/>
    <trip id="bike158" type="bike_bicycle" depart="486.52" departLane="best" from="1115616620#0" to="815093894#0"/>
    <trip id="bike159" type="bike_bicycle" depart="489.60" departLane="best" from="-63104587#2" to="8651750#2"/>
    <trip id="bike160" type="bike_bicycle" depart="492.68" departLane="best" from="8648451#1" to="929580948#1"/>
    <trip id="bike163" type="bike_bicycle" depart="501.91" departLane="best" departSpeed="max" from="-944497933" to="8651839#1"/>
    <trip id="bike164" type="bike_bicycle" depart="504.99" departLane="best" from="8646506#0" to="8648789#3"/>
    <trip id="bike166" type="bike_bicycle" depart="511.15" departLane="best" from="8645199#3" to="-468490261#0"/>
    <trip id="bike167" type="bike_bicycle" depart="514.23" departLane="best" from="8648789#3" to="8648769"/>
    <trip id="bike168" type="bike_bicycle" depart="517.31" departLane="best" from="825494585#7" to="8647351#5"/>
    <trip id="bike169" type="bike_bicycle" depart="520.39" departLane="best" from="-138827709#0" to="1106843295#1"/>
    <trip id="bike171" type="bike_bicycle" depart="526.55" departLane="best" from="-1112835160#3" to="8638991#3"/>
    <trip id="bike172" type="bike_bicycle" depart="529.63" departLane="best" from="943802147#1" to="8648789#3"/>
    <trip id="bike173" type="bike_bicycle" depart="532.71" departLane="best" from="8865426#12" to="-944116814"/>
    <trip id="bike174" type="bike_bicycle" depart="535.79" departLane="best" from="815603050#1" to="1284186043#2"/>
    <trip id="bike176" type="bike_bicycle" depart="541.94" departLane="best" from="8652409#3" to="-537303955#0"/>
    <trip id="bike178" type="bike_bicycle" depart="548.10" departLane="best" from="8865425#5" to="-8652508#1"/>
    <trip id="bike179" type="bike_bicycle" depart="551.18" departLane="best" from="138827709#0" to="138827709#1"/>
    <trip id="bike180" type="bike_bicycle" depart="554.26" departLane="best" from="8639350#4" to="1112835159#1"/>
    <trip id="bike182" type="bike_bicycle" depart="560.42" departLane="best" from="1115616587" to="63104587#1"/>
    <trip id="bike183" type="bike_bicycle" depart="563.50" departLane="best" from="8640929#5" to="-8639232"/>
    <trip id="bike184" type="bike_bicycle" depart="566.58" departLane="best" from="103553904#1" to="8651358#1"/>
    <trip id="bike185" type="bike_bicycle" depart="569.66" departLane="best" from="426456625#1" to="-8639801#2"/>
    <trip id="bike186" type="bike_bicycle" depart="572.74" departLane="best" from="8640674#1" to="-825494585#5"/>
    <trip id="bike187" type="bike_bicycle" depart="575.82" departLane="best" from="-1112835160#2" to="1241149233#1"/>
    <trip id="bike188" type="bike_bicycle" depart="578.90" departLane="best" from="823316157" to="1113193581#1"/>
    <trip id="bike189" type="bike_bicycle" depart="581.97" departLane="best" from="-8651750#2" to="8648025#1"/>
    <trip id="bike190" type="bike_bicycle" depart="585.05" departLane="best" from="8638991#3" to="104210747#5"/>
    <trip id="bike192" type="bike_bicycle" depart="591.21" departLane="best" from="1115616616#1" to="103553906#4"/>
    <trip id="bike195" type="bike_bicycle" depart="600.45" departLane="best" from="8650349#3" to="814689601#1"/>
    <trip id="bike196" type="bike_bicycle" depart="603.53" departLane="best" departSpeed="max" from="-8649414#1" to="537260529#1"/>
    <trip id="bike197" type="bike_bicycle" depart="606.61" departLane="best" from="-1032022089" to="1031513328"/>
    <trip id="bike198" type="bike_bicycle" depart="609.69" departLane="best" from="1223509838#2" to="63104590#1"/>
    <trip id="bike200" type="bike_bicycle" depart="615.85" departLane="best" from="-1302402603#1" to="-8641560#2"/>
    <trip id="bike203" type="bike_bicycle" depart="625.08" departLane="best" from="1241149233#0" to="426456637"/>
    <trip id="bike204" type="bike_bicycle" depart="628.16" departLane="best" from="-815093894#0" to="1115616585#2"/>
    <trip id="bike205" type="bike_bicycle" depart="631.24" departLane="best" from="8647038#1" to="8643791#0"/>
    <trip id="bike206" type="bike_bicycle" depart="634.32" departLane="best" from="825494585#3" to="-8644647#0"/>
    <trip id="bike208" type="bike_bicycle" depart="640.48" departLane="best" from="-8639801#4" to="380662074#2"/>
    <trip id="bike209" type="bike_bicycle" depart="643.56" departLane="best" from="8647670#2" to="-1281777218#1"/>
    <trip id="bike211" type="bike_bicycle" depart="649.72" departLane="best" from="-816291664#0" to="-8637728#1"/>
    <trip id="bike212" type="bike_bicycle" depart="652.80" departLane="best" from="380662069#1" to="8648025#0"/>
    <trip id="bike213" type="bike_bicycle" depart="655.88" departLane="best" from="-817361891#1" to="103553906#2"/>
    <trip id="bike214" type="bike_bicycle" depart="658.95" departLane="best" departSpeed="max" from="8641399#0" to="8645199#1"/>
    <trip id="bike215" type="bike_bicycle" depart="662.03" departLane="best" from="-1323781936#2" to="138827669#1"/>
    <trip id="bike216" type="bike_bicycle" depart="665.11" departLane="best" departSpeed="max" from="-788015186#1" to="8865425#1"/>
    <trip id="bike217" type="bike_bicycle" depart="668.19" departLane="best" from="420495586#1" to="1115616613"/>
    <trip id="bike218" type="bike_bicycle" depart="671.27" departLane="best" from="8640674#1" to="8648025#1"/>
    <trip id="bike219" type="bike_bicycle" depart="674.35" departLane="best" from="138827679#1" to="8646962#1"/>
    <trip id="bike220" type="bike_bicycle" depart="677.43" departLane="best" from="823316163#0" to="972626709#4"/>
    <trip id="bike221" type="bike_bicycle" depart="680.51" departLane="best" from="63104562#0" to="879039476#0"/>
    <trip id="bike223" type="bike_bicycle" depart="686.67" departLane="best" from="8638991#1" to="426456594#2"/>
    <trip id="bike228" type="bike_bicycle" depart="702.06" departLane="best" from="8642281#1" to="426472927#0"/>
    <trip id="bike229" type="bike_bicycle" depart="705.14" departLane="best" departSpeed="max" from="798941674#0" to="-8866322#2"/>
    <trip id="bike230" type="bike_bicycle" depart="708.22" departLane="best" from="-1115616621" to="1031513328"/>
    <trip id="bike231" type="bike_bicycle" depart="711.30" departLane="best" from="8644931#2" to="1112835160#5"/>
    <trip id="bike233" type="bike_bicycle" depart="717.46" departLane="best" departSpeed="max" from="-862889528#1" to="8636684#4"/>
    <trip id="bike234" type="bike_bicycle" depart="720.54" departLane="best" departSpeed="max" from="8637744#0" to="-1117928632#0"/>
    <trip id="bike235" type="bike_bicycle" depart="723.62" departLane="best" from="1115616620#1" to="533466405"/>
    <trip id="bike236" type="bike_bicycle" depart="726.70" departLane="best" from="1123326681#2" to="-8640788#0"/>
    <trip id="bike237" type="bike_bicycle" depart="729.78" departLane="best" from="1154670875#1" to="8650638#1"/>
    <trip id="bike238" type="bike_bicycle" depart="732.86" departLane="best" departSpeed="max" from="538554381#0" to="8636684#5"/>
    <trip id="bike240" type="bike_bicycle" depart="739.01" departLane="best" from="-1115616585#1" to="103553906#2"/>
    <trip id="bike241" type="bike_bicycle" depart="742.09" departLane="best" departSpeed="max" from="103554256#0" to="8643916#1"/>
    <trip id="bike242" type="bike_bicycle" depart="745.17" departLane="best" from="8647891#1" to="8865420#1"/>
    <trip id="bike243" type="bike_bicycle" depart="748.25" departLane="best" from="1147916780" to="8642454#0"/>
    <trip id="bike244" type="bike_bicycle" depart="751.33" departLane="best" from="426472927#0" to="749812082#2"/>
    <trip id="bike245" type="bike_bicycle" depart="754.41" departLane="best" from="-871799067#1" to="-8641950#3"/>
    <trip id="bike246" type="bike_bicycle" depart="757.49" departLane="best" from="1281777361#0" to="-1115616585#0"/>
    <trip id="bike247" type="bike_bicycle" depart="760.57" departLane="best" from="-985552044#10" to="846628946#0"/>
    <trip id="bike248" type="bike_bicycle" depart="763.65" departLane="best" from="1115616617#0" to="-825494585#6"/>
    <trip id="bike250" type="bike_bicycle" depart="769.81" departLane="best" from="-749812082#1" to="-1115273723#1"/>
    <trip id="bike251" type="bike_bicycle" depart="772.89" departLane="best" from="1115616604#0" to="591217313#1"/>
    <trip id="bike252" type="bike_bicycle" depart="775.97" departLane="best" from="-1112835160#6" to="-816934280#2"/>
    <trip id="bike253" type="bike_bicycle" depart="779.04" departLane="best" from="468490261#1" to="289468264#1"/>
    <trip id="bike254" type="bike_bicycle" depart="782.12" departLane="best" departSpeed="max" from="-1115616589" to="1160123819"/>
    <trip id="bike255" type="bike_bicycle" depart="785.20" departLane="best" from="-817361891#2" to="1112835161#1"/>
    <trip id="bike256" type="bike_bicycle" depart="788.28" departLane="best" from="8641950#2" to="1160123819"/>
    <trip id="bike257" type="bike_bicycle" depart="791.36" departLane="best" departSpeed="max" from="8641399#0" to="8647456#6"/>
    <trip id="bike258" type="bike_bicycle" depart="794.44" departLane="best" from="8640929#3" to="1323781936#3"/>
    <trip id="bike259" type="bike_bicycle" depart="797.52" departLane="best" departSpeed="max" from="-1111965193" to="500291586#0"/>
    <trip id="bike260" type="bike_bicycle" depart="800.60" departLane="best" from="99809128#2" to="-1115616604#0"/>
    <trip id="bike262" type="bike_bicycle" depart="806.76" departLane="best" from="929580947#1" to="8643916#1"/>
    <trip id="bike263" type="bike_bicycle" depart="809.84" departLane="best" from="871799064" to="-8639801#4"/>
    <trip id="bike264" type="bike_bicycle" depart="812.92" departLane="best" from="-1112835159#1" to="-816934280#3"/>
    <trip id="bike266" type="bike_bicycle" depart="819.07" departLane="best" from="468490261#1" to="-8641950#2"/>
    <trip id="bike267" type="bike_bicycle" depart="822.15" departLane="best" from="8636143" to="8645199#1"/>
    <trip id="bike268" type="bike_bicycle" depart="825.23" departLane="best" from="-749812082#1" to="750675235#1"/>
    <trip id="bike269" type="bike_bicycle" depart="828.31" departLane="best" from="8640929#4" to="-533511492#1"/>
    <trip id="bike271" type="bike_bicycle" depart="834.47" departLane="best" from="1323781936#3" to="-1115273723#0"/>
    <trip id="bike273" type="bike_bicycle" depart="840.63" departLane="best" from="-8865420#4" to="1281777361#1"/>
    <trip id="bike274" type="bike_bicycle" depart="843.71" departLane="best" from="8638252#5" to="1302402603#1"/>
    <trip id="bike275" type="bike_bicycle" depart="846.79" departLane="best" departSpeed="max" from="862886774#0" to="815093895#2"/>
    <trip id="bike276" type="bike_bicycle" depart="849.87" departLane="best" departSpeed="max" from="-1303174799" to="8645388#2"/>
    <trip id="bike277" type="bike_bicycle" depart="852.95" departLane="best" from="8647670#3" to="747090068#4"/>
    <trip id="bike279" type="bike_bicycle" depart="859.10" departLane="best" from="8645083#3" to="1115616600"/>
    <trip id="bike280" type="bike_bicycle" depart="862.18" departLane="best" from="1223509838#0" to="1115616624"/>
    <trip id="bike282" type="bike_bicycle" depart="868.34" departLane="best" from="8647670#2" to="8647432#1"/>
    <trip id="bike283" type="bike_bicycle" depart="871.42" departLane="best" departSpeed="max" from="-1317705793" to="8865425#5"/>
    <trip id="bike284" type="bike_bicycle" depart="874.50" departLane="best" from="-815093895#1" to="8643916#1"/>
    <trip id="bike285" type="bike_bicycle" depart="877.58" departLane="best" departSpeed="max" from="8637744#0" to="138827709#1"/>
    <trip id="bike287" type="bike_bicycle" depart="883.74" departLane="best" from="-8644931#1" to="8647066#1"/>
    <trip id="bike289" type="bike_bicycle" depart="889.90" departLane="best" from="1281777361#0" to="-8640788#0"/>
    <trip id="bike290" type="bike_bicycle" depart="892.98" departLane="best" from="8644931#0" to="8648326#0"/>
    <trip id="bike292" type="bike_bicycle" depart="899.13" departLane="best" from="-8649468#3" to="8648025#0"/>
    <trip id="bike293" type="bike_bicycle" depart="902.21" departLane="best" from="138827726#1" to="788015186#1"/>
    <trip id="bike294" type="bike_bicycle" depart="905.29" departLane="best" departSpeed="max" from="1115616585#0" to="-1115616585#0"/>
    <trip id="bike295" type="bike_bicycle" depart="908.37" departLane="best" from="8647670#3" to="-863038354#0"/>
    <trip id="bike296" type="bike_bicycle" depart="911.45" departLane="best" from="-817361891#2" to="8646916#1"/>
    <trip id="bike297" type="bike_bicycle" depart="914.53" departLane="best" from="-985552044#4" to="8649580#1"/>
    <trip id="bike298" type="bike_bicycle" depart="917.61" departLane="best" from="8636684#4" to="-943802147#1"/>
    <trip id="bike299" type="bike_bicycle" depart="920.69" departLane="best" from="-104210747#2" to="-871799064"/>
    <trip id="bike300" type="bike_bicycle" depart="923.77" departLane="best" from="1241149233#1" to="-8639801#2"/>
    <trip id="bike301" type="bike_bicycle" depart="926.85" departLane="best" from="289468264#2" to="-8644931#0"/>
    <trip id="bike302" type="bike_bicycle" depart="929.93" departLane="best" departSpeed="max" from="862886774#0" to="-816934280#4"/>