<?xml version="1.0" encoding="UTF-8"?>

<!-- generated on 2024-10-29 20:02:13.346284 by osmWebWizard.py v1_21_0+0000-d7b3b481c43
<configuration>
    <net-file value="C:\Windows\system32\2024-10-29-20-01-42\osm.net.xml.gz"/>
    <output-trip-file value="C:\Windows\system32\2024-10-29-20-01-42\osm.pedestrian.trips.xml"/>
    <route-file value="C:\Windows\system32\2024-10-29-20-01-42\osm.pedestrian.rou.xml"/>
    <pedestrians value="True"/>
    <prefix value="ped"/>
    <vehicle-class value="pedestrian"/>
    <fringe-factor value="1"/>
    <max-distance value="2000.0"/>
    <insertion-density value="100.0"/>
</configuration>
-->

<!-- generated on 2024-10-29 20:02:07 by Eclipse SUMO duarouter Version 1.21.0
<duarouterConfiguration xmlns:xsi="http://www.w3.org/2001/XMLSchema-instance" xsi:noNamespaceSchemaLocation="http://sumo.dlr.de/xsd/duarouterConfiguration.xsd">

    <input>
        <net-file value="C:\Windows\system32\2024-10-29-20-01-42\osm.net.xml.gz"/>
        <route-files value="C:\Windows\system32\2024-10-29-20-01-42\osm.pedestrian.trips.xml"/>
    </input>

    <output>
        <output-file value="C:\Windows\system32\2024-10-29-20-01-42\osm.pedestrian.rou.xml"/>
        <alternatives-output value="NUL"/>
    </output>

    <time>
        <begin value="0.0"/>
        <end value="3600.0"/>
    </time>

    <report>
        <no-warnings value="true"/>
        <ignore-errors value="true"/>
        <no-step-log value="true"/>
    </report>

</duarouterConfiguration>
-->

<routes xmlns:xsi="http://www.w3.org/2001/XMLSchema-instance" xsi:noNamespaceSchemaLocation="http://sumo.dlr.de/xsd/routes_file.xsd">
    <vType id="ped_pedestrian" vClass="pedestrian"/>
    <person id="ped0" type="ped_pedestrian" depart="0.00">
        <walk edges="817426210#0 822088242 817790585#0 817790585#1 944112495#0 817035438#0 690944531#0 780534910 780534909 780534911#1 780534912 690944529#1 690944529#0 690112764#1 690944533 690944534 690944532 94483069 658046532 658046529#4 127555648#0 658046521#1 289468263#3 822088246#1 658046537#1 127555650#2 708051311 382991562#0 382991562#1 708051318#3 708051318#4 708051318#5 -1181032038#0"/>
    </person>
    <person id="ped1" type="ped_pedestrian" depart="0.72">
        <walk edges="426487635#0 8644931#3 840001639#1 840001644#1 840001644#0 840001643#0 840001643#1 8644931#0 1323781936#3 1323781936#1 -8865420#2 -8865420#3 -8865420#4 -8865420#5 658046439#2 658046439#1 815485562#0 -8650349#2 -8650349#1 817426192#0 817426191 815602979#1 383937620#1 383937619#0 383937619#1 172126949"/>
    </person>
    <person id="ped2" type="ped_pedestrian" depart="1.43">
        <walk edges="825494502#2 825494503#0 825494499#1 825494496 825494622#0 8647456#12 8647456#14 8647456#15 825494520#1 825494522#1 825494523#1 380662077#0 380662077#1 815486627#1 815486627#0 837304807#3 837304807#4 834856262#0 834856262#1 834856263 825626964#0 825626964#1 817766621#0"/>
    </person>
    <person id="ped3" type="ped_pedestrian" depart="2.15">
        <walk edges="854660420#1 854660420#2 814384158 814384157 99809130#1 99809131#0 99809131#1 99809131#2 814391423 814391422#0 814391422#1 854660419#1 8865420#1 -1323781936#2 -1323781936#3 -8644931#0 -8644931#1 -8644931#2"/>
    </person>
    <person id="ped4" type="ped_pedestrian" depart="2.87">
        <walk edges="788015172#9 788015179 788015175#0 788015176 788015174 788015173 788015185 658046452#0 127555646#0 658046457#0 658046476#1 658046468#0 658046471#1 815610738 815603048 1318451124#1 815603050#3 815610740#1 823316155#3 8647456#18 825494516#1 825494517#1 827113151#1 825494602#1 815603052#0 -8652508#1 -1303174799"/>
    </person>
    <person id="ped5" type="ped_pedestrian" depart="3.58">
        <walk edges="1323781936#1 658046457#0 658046476#1 658046468#0 658046471#1 815610738 815603048 1318451124#1 815603050#1"/>
    </person>
    <person id="ped6" type="ped_pedestrian" depart="4.30">
        <walk edges="-1241149233#0 -1112835160#1 785134091#1 785134092#1 -1115616585#0 1288544606#2 1288544609"/>
    </person>
    <person id="ped7" type="ped_pedestrian" depart="5.02">
        <walk edges="817426215#1 817426217#1 817426217#0 944486849#2 817426219#3 742685025#1 816906865#1 816906866#0 816906866#1 816906867#0 816906867#1 816906869#1 -8638252#6 -8638252#4 -8638252#2 816227286#0 815790482#2 944822779#3 815790482#0 8866322#1 138827726#2 138827726#1 138827726#0 815602998#0 944831874#1 944831874#0 944831875 815602983#2 815602983#1 815602983#0 825494641#4 825494641#2 1318451129 815606416 815606415#0 815606415#1 842963294#2 842963294#1 842963294#0 815610749#0"/>
    </person>
    <person id="ped8" type="ped_pedestrian" depart="5.74">
        <walk edges="138827726#0 138827726#1 138827726#2 -8650349#1 -8650349#2 -8650349#3 863038355#0 8865420#5 8865420#4 8865420#3 8865420#1 658046457#2 658046463#2 387748573#1 387748573#0 1303174792#3 1303174792#2 1303174792#1 828697458#0 -816934280#4 -816934280#3 816934280#2"/>
    </person>
    <person id="ped9" type="ped_pedestrian" depart="6.45">
        <walk edges="827113150#0 825494602#0 825494521#1 825494516#0 8647456#18 823316155#3 815610740#1 815603050#3 1318451124#1 815603048 815610738 658046471#1 658046468#0 658046476#1 658046457#0 1292205156#2 658046452#2 -1115616586#1 -1115616586#0 1112835157#3 1112835160#4 1112835160#5 1112835160#6 -1112835160#7"/>
    </person>
    <person id="ped10" type="ped_pedestrian" depart="7.17">
        <walk edges="825626973#0 815606424#0 815606424#1 817407011#0 817407015#1 817407013 815610731#1 815610731#0 825494489#0 825494491#1 825494490#1 825494490#2 825494628#1 825494629#0 825494621 825494622#0 8647456#12 8647456#14 8647456#15 825494516#0 825494521#1 825494602#0 827113150#0 945477393 1211637139#1 1211637143#1 1211637142#1 1211637145#1 1318451125 1318451126#1 1318451126#0 1318451127 818225886#0"/>
    </person>
    <person id="ped11" type="ped_pedestrian" depart="7.89">
        <walk edges="658046535#2 658046534#1 658046534#0 828697457 382991570#2 382991570#1 382991567#1 426487635#1 127555659#0 1187856321#1 1187856316#0 1187856316#1"/>
    </person>
    <person id="ped12" type="ped_pedestrian" depart="8.60">
        <walk edges="871799065#1 815603057#0 848259476 383026771#2 383026771#1 815610752 825494642 240473990#0 383937619#0 383937620#1 815602979#1 817426191 817426192#0 816863449#1 944822779#1 944822779#0 816906855#2 944822778#0 944822778#1 944822778#2 -8649414#0 -8649414#1 484935546#1 484935546#0 817790588#2 784204800 784204801 784204802 784204803 784204804 99809138 252609866#0 252609866#1 658046518#1 658046518#2 658046529#1 658046529#2 658046529#3 658046529#4 658046530#0"/>
    </person>
    <person id="ped13" type="ped_pedestrian" depart="9.32">
        <walk edges="-8648727#2 -8647670#3 -8647670#2 8647670#1 944486848#4 944486848#5 1219880592 217801069#1 1219880591#1 217801063#1 708051337#1 -217801058#0 401265367#1 708051334#1 708051335#1 8650688#1 -8650688#1"/>
    </person>
    <person id="ped14" type="ped_pedestrian" depart="10.04">
        <walk edges="837304817 837304810#5 837304810#6 837304811 837304828#1 834856249 834856248 834856247 825626955#1 825626955#2 817361877#2 815611978#2 815611977 817361866#0"/>
    </person>
    <person id="ped15" type="ped_pedestrian" depart="10.75">
        <walk edges="825626975 815606425 817407011#1 817407015#1 817407013 815610731#1 815610731#0 825494489#0 825494491#1 825494490#1"/>
    </person>
    <person id="ped16" type="ped_pedestrian" depart="11.47">
        <walk edges="815610737#3 823316165#0 823316165#1 823316164#0 823316164#1 834856260#0 834856260#1 834856261 834856264#1 834856265#1 834856267#0 834856267#1 834856266#0 834856266#1 834856268#1 658046490#2 658046490#1 658046471#1 658046468#0 658046476#1 658046457#0 1292205156#2 658046452#2 658046452#3 658046452#4 767378332#4 767378332#3 767378332#2 767378332#1 815050613#1 815050613#7 944112498#1 944112498#0 944486849#0 944486849#1 944479967"/>
    </person>
    <person id="ped17" type="ped_pedestrian" depart="12.19">
        <walk edges="708051351#2 708051351#1 708051351#0 708051361#1 708051334#1 708051318#7 708051318#6 708051318#5 708051318#4 382991567#0 426487635#1 426487635#0 8644931#3 840001639#1 840001644#1 840001644#0 840001643#0 840001643#1 8644931#0 1323781936#3 1323781936#1 -8865420#2 -8865420#3 -8865420#4 -8865420#5 658046439#2 658046439#1 815485562#0 815485562#1 815485564 815790478 815790477#5 815790477#4 815790477#3 818614244#1 818614244#0 816258729 99809124#1 99809124#0 99809125#1 99809125#4 818163464#2 818163464#1 815746544#2"/>
    </person>
    <person id="ped18" type="ped_pedestrian" depart="12.90">
        <walk edges="834856268#1 834856266#1 834856266#0 834856267#1 834856267#0 834856265#1 834856264#1 834856261 834856260#1 834856260#0 823316164#1 823316164#0 823316165#1 823316165#0 815610737#3 815610737#2 815610737#1 815610737#0 825494513#2 -862879202#0 -862879202#1 815610727 862879200#1 825494527 825494529#1 825494530#0 815610730 825494536#1 825494536#0 817407012#1 817407012#0"/>
    </person>
    <person id="ped19" type="ped_pedestrian" depart="13.62">
        <walk edges="840011309#1 817766653#0 708051348#2 708051348#1 708051347#1 782462324#0 708051346#1 1227687506#1 828697456#1 289468264#0 289468264#1 289468264#2 426484925#2 127555661#1 382991574#0 426487627#1 658046518#1 252609866#1 252609866#0 99809138 784204804 784204803 784204802 784204801 784204800 817790588#2 484935546#0 484935546#1 -8649414#1 767378332#2 816906859#3 816906859#2 816906859#1 816906859#0"/>
    </person>
    <person id="ped20" type="ped_pedestrian" depart="14.34">
        <walk edges="822088244 817426210#2 817426210#0 822088242 817790585#0 817790585#1 817035438#1 944112495#1 817426200 767379216#0 -747090068#0 944113985#0 815050292#2 944112498#0 944112498#1 944112498#2 944482040 658046541#0 658046541#1 252609866#1 426487624#1 127555654#2 658046534#1 658046534#0 828697457 382991570#2 382991570#1 382991567#1 -591493143#0 -591493143#1"/>
    </person>
    <person id="ped21" type="ped_pedestrian" depart="15.06">
        <walk edges="217801058#1 -217801058#0 708051337#1 708051338 708051318#2 382991562#1 289468262#2 708051313#1 1223509838#2 426487624#1 252609866#1 252609866#0 99809138 784204804 784204803 784204802 784204801 784204800 817790588#2 484935546#0 484935546#1"/>
    </person>
    <person id="ped22" type="ped_pedestrian" depart="15.77">
        <walk edges="-8638252#4 -8638252#6 816906869#1 816906867#1 -862890873 816906872#2 236579292"/>
    </person>
    <person id="ped23" type="ped_pedestrian" depart="16.49">
        <walk edges="-8651975#0 658046530#2 658046530#1 658046530#0 658046529#4 658046529#3 658046529#2 658046529#1 658046529#0 817035440#1 817035440#0 944112496#3 944112497#1 817426208#1 817426213#1 817426213#0 817426212#4 817426212#3 1289691146#0 817426214#2 817426221 817426223#0 817426224 470445666#0 470445663#2"/>
    </person>
    <person id="ped24" type="ped_pedestrian" depart="17.21">
        <walk edges="817426206#1 817426206#2 816313517#1 -816313518#1 173473723#0 1305073610#1 -815488390#3 -815488390#2 815488390#0 658046530#1 815488392#1 289468264#0 828697456#1 -8651226#2 -8651226#1 217801069#1 1219880591#1 217801063#1 708051338 708051318#1 708051320#1 708051320#0 708051332#0"/>
    </person>
    <person id="ped25" type="ped_pedestrian" depart="17.92">
        <walk edges="708051340#1 708051339 217801069#1 1219880592 944486848#5 944486848#4 944486848#3 658046526#2 658046526#3 658046526#4 658046521#0 127555648#0 658046529#4 658046532 94483069 690944532 690944534 690944533 690112764#1 690944529#0 690944529#1 780534912 780534911#1 780534909 780534910 690944531#0 817035438#0 944112495#0 817790585#1 817790585#0 822088242 817426210#0 817426210#2 817426230#0 817426230#1 817426229#2 817426336 817426328#1 817426328#0 1305486341"/>
    </person>
    <person id="ped26" type="ped_pedestrian" depart="18.64">
        <walk edges="405941852#1 825494490#1 825494491#1 825494489#0 825494482 825494483#1 825494475#0 825494470#2 825494470#1 8648235#0"/>
    </person>
    <person id="ped27" type="ped_pedestrian" depart="19.36">
        <walk edges="817426213#1 817426208#1 767379216#0 -747090068#0 944113985#0 815050292#2 944112498#0 944112498#1 815050613#7 815050613#1 767378332#1 767378332#2 767378332#3 767378332#4 658046452#4 658046452#3 658046452#2 1292205156#2 658046457#2 658046463#2 658046463#3 658046463#4 387748568#1 658046470#1 -658046484#0 658046500#2 658046500#3 658046491#3 658046491#1 658046491#0 825626964#0 834856263 834856262#1 834856262#0 837304807#4 837304807#3 837304807#2 837304807#1 837304807#0 837304800#1 837304800#0 834856245#1 834856245#0 834856244#1 834856244#0 825626955#0 825626955#1 825626955#2 817361877#2 817361877#0 817361880#0 817361880#1"/>
    </person>
    <person id="ped28" type="ped_pedestrian" depart="20.07">
        <walk edges="122411158#1 122411158#2 122411158#3 108236232#3 108236234#0 108235944#4 977443915 815790482#0 8866322#1 8650349#1 815093888#2 658046439#0 815485562#0 815485562#1 815485564 815790478 815790477#5 815790477#4 815790477#3 818614244#1 818614244#0 816258729 99809124#1 99809124#0 99809125#1 99809125#4 818163464#2 818163464#1 815746544#2 815746544#3 814391425 815603016#3 815603016#2 823316155#1 815610746#0 815603015#1 825494518#0 8647456#15 8647456#14 8647456#12 825494622#0 825494621 825494629#0 825494628#1 825494490#2 825494490#1 825494490#0"/>
    </person>
    <person id="ped29" type="ped_pedestrian" depart="20.79">
        <walk edges="1211637141#1 825494517#3 825494517#2 825494517#1 825494516#1 8647456#18 823316155#3 815610740#1 815603050#3 1318451124#1 815603048 815610738 658046471#1 658046468#0 658046476#1 658046457#0 1323781936#1 1323781936#3 8644931#0 840001643#1 840001643#0 840001644#0 840001644#1 840001639#1 8644931#3 426487635#0 426487635#1 382991567#0 708051318#4 708051318#5 708051318#6 708051318#7 708051334#1 708051361#1 708051351#0 708051351#1 708051351#2 708051351#3 708051352#0"/>
    </person>
    <person id="ped30" type="ped_pedestrian" depart="21.51">
        <walk edges="972626709#4 708051336#2 708051336#1 708051336#0 -944497933 -217801058#0 708051337#1 217801063#1 1219880591#1 217801069#1 1219880592 944486848#5 944486848#4 944486848#3 658046526#2 658046526#3 658046526#4 658046521#0 127555648#0 658046529#4 658046532 94483069 690944532 690944534 690944533 690112764#1 690944529#0 690944529#1 780534912 780534911#1 780534909 780534910 690944531#0 817035438#0 944112495#0 817790585#1 817790585#0 822088242 817426210#0 817426210#2 817426210#1"/>
    </person>
    <person id="ped31" type="ped_pedestrian" depart="22.22">
        <walk edges="815790477#4 815790477#5 815790478 815485564 815485562#1 815485562#0 658046439#1 658046439#2 -8865420#5 -8865420#4 -8865420#3 -8865420#2 1323781936#1 1323781936#3 8644931#0 840001643#1 840001643#0 840001644#0 840001644#1 840001639#1 8644931#3 426487635#0 426487635#1 382991567#0 708051318#4 708051318#5 708051318#6 708051318#7 401265367#1 401265367#3 426484913#1 708051342#3 708051354#1 8641399#5 8641399#1 409161400#1 817766656#0"/>
    </person>
    <person id="ped32" type="ped_pedestrian" depart="22.94">
        <walk edges="837304810#2 837304810#3 837304810#4 837304810#5 837304810#6 837304811 837304828#1 834856249 834856248 834856247 825626955#1 942780310#1 817361872#0 825494528#1 825494531#1 825494525#1 815610729 825494625#1 825494629#1 825494619 815610748#1 815610747#0 815606375#4 825494600 825494596"/>
    </person>
    <person id="ped33" type="ped_pedestrian" depart="23.66">
        <walk edges="217801064#1 708051336#2 708051336#1 708051351#2 708051351#1 708051351#0 708051361#1 708051334#1 708051318#7 708051318#6 708051318#5 708051318#4 382991567#0 426487635#1 426487635#0 8644931#3 840001639#1 840001644#1 840001644#0 840001643#0 840001643#1 8644931#0 1323781936#3 1323781936#1 -8865420#2 -8865420#3 -8865420#4 -8865420#5 658046439#2 658046439#1 815485562#0 -8650349#2 -8650349#1 -138827726#2 -138827726#1"/>
    </person>
    <person id="ped34" type="ped_pedestrian" depart="24.38">
        <walk edges="658046457#0 1323781936#1 1323781936#3 8644931#0 840001643#1 840001643#0 840001644#0 840001644#1 840001639#1 8644931#3 426487635#0 426487635#1 382991567#0 708051318#4 708051318#5 708051318#6 708051318#7 401265367#1 401265367#3 426484913#1 708051342#3 708051354#1 8641399#5 8641399#1 409161400#1 409161400#0"/>
    </person>
    <person id="ped35" type="ped_pedestrian" depart="25.09">
        <walk edges="1318447189#0 1318447189#1 816227291#1 8651031#1 816227290#0 8649334"/>
    </person>
    <person id="ped36" type="ped_pedestrian" depart="25.81">
        <walk edges="844295879#1 825626954#0 817361880#0 817361877#0 817361877#2 825626955#2 825626955#1 825626955#0 834856244#0 834856244#1 834856245#0 834856245#1 837304800#0 837304800#1 837304807#0 837304807#1 837304807#2 837304807#3 837304807#4 834856262#0 834856262#1 834856263 825626964#0 658046491#0 658046491#1 658046491#3 658046500#3 658046500#2 -658046484#0 658046470#1 387748568#1 658046463#4 658046463#3 658046463#2 658046457#2 1292205156#2 658046452#2 658046452#3"/>
    </person>
    <person id="ped37" type="ped_pedestrian" depart="26.53">
        <walk edges="817426218#1 817426219#1 817426219#2 -747090068#3 -747090068#2 817426217#0 944486849#1 944486849#0 944112498#0 944112498#1 815050613#7 815050613#1 767378332#1"/>
    </person>
    <person id="ped38" type="ped_pedestrian" depart="27.24">
        <walk edges="8638252#1 815790482#3 944822779#0 944822779#1 816906854 815093889 815093894#1"/>
    </person>
    <person id="ped39" type="ped_pedestrian" depart="27.96">
        <walk edges="387748573#1 658046463#2 658046457#2 8865420#1 854660419#1 814391422#1 29830311#3"/>
    </person>
    <person id="ped40" type="ped_pedestrian" depart="28.68">
        <walk edges="815790482#3 944822779#0 944822779#1 816863449#1 8650349#1 8650349#2 8650349#3 -863038355#0 -8865420#5 -8865420#4 8865420#3 8865420#1 658046457#2 658046463#2 658046463#3 658046463#4 387748568#1 387748568#2 387748568#3"/>
    </person>
    <person id="ped41" type="ped_pedestrian" depart="29.39">
        <walk edges="816906869#1 -8638252#6 -8638252#4 -8638252#2 -8638252#1 815790482#3 944822779#0 944822779#1 816863449#1 8650349#1 815093888#2 658046439#0 815485562#0 815485562#1 815485564 815790478 815790477#5 815790477#4 815790477#3 818614244#1 818614244#0 816258729 99809124#1 99809124#0 99809125#1 99809125#4 818163464#2 818163464#1 815746544#2 815746544#3 814391425 815603016#3 815603016#2 823316155#1 815610746#0 815603015#1 825494518#0 8647456#15 8647456#14 8647456#12 825494622#0 825494496 825494499#1 8647456#6 862886776#0"/>
    </person>
    <person id="ped42" type="ped_pedestrian" depart="30.11">
        <walk edges="780534910 817035439#0 944112497#0 944112497#1 767379216#0 -747090068#0 944113985#0 815050292#2 944112498#0 944112498#1 815050613#7 815050613#1 767378332#1 767378332#2 767378332#3 816906857#1 138798811"/>
    </person>
    <person id="ped43" type="ped_pedestrian" depart="30.83">
        <walk edges="99809130#0 99809131#0 99809131#1 814391424#1 814391424#0 854660419#3 854660419#4 814391426#1 -8650349#3 -8650349#2 -8650349#1 817426192#0 817426191 815602979#1 383937620#1 383937619#0 240473990#0 825494642 815610752 383026771#1 383026771#2 848259476 815603057#0"/>
    </person>
    <person id="ped44" type="ped_pedestrian" depart="31.54">
        <walk edges="-8648326#0 816906859#1 816906860 816273227#2 817426198#2 817426198#1 817426198#0 944816678#1 816906869#0 944816678#0 -63104562#3"/>
    </person>
    <person id="ped45" type="ped_pedestrian" depart="32.26">
        <walk edges="1032022088#1 1032022088#2 828697458#0 1303174792#1 1303174792#2 1303174792#3 387748573#0 387748573#1 658046463#2 658046457#2 1292205156#2 658046452#2 658046452#3 658046452#4 767378332#4 767378332#3 767378332#2 816906859#3 816906859#2 828329456 816227290#0 8651031#1 -8638252#4 816906871#1 816906871#0 817426196#2 -63104562#0 817426197#4"/>
    </person>
    <person id="ped46" type="ped_pedestrian" depart="32.98">
        <walk edges="825494641#5 825494642 240473990#0 383937619#0 383937620#1 815602979#1 817426191 817426192#0 816863449#1 816906854 815093889 658046441 658046442#4 658046428#2 879039476#0 658046436 864847720 658046452#4 1241149233#0 1112835160#2 -1112835160#3 1112835157#4 -1112835163 -1112835161#1 1115273725#0 788015172#9"/>
    </person>
    <person id="ped47" type="ped_pedestrian" depart="33.70">
        <walk edges="-816934280#0 -816934280#4 8641560#2 8641560#1 815486624#3 1319663436 127555659#0 -426487635#1 382991567#0 708051318#4 708051318#5 708051318#6 708051318#7 401265367#1 401265367#3 426484913#1 708051342#3 708051354#1 708051356#1"/>
    </person>
    <person id="ped48" type="ped_pedestrian" depart="34.41">
        <walk edges="99809128#2 99809128#1 8644931#0 1323781936#3 1323781936#1 658046457#0 658046476#1 658046468#0 658046471#1 658046490#1 658046490#2 834856268#1 834856266#1 834856266#0 834856267#1 834856267#0 834856265#1 834856264#1 834856261 834856260#1 834856260#0 823316164#1 823316164#0 823316165#1 823316165#0 815610737#3 815610737#2 815610737#1 815610737#0 825494513#2 -862879202#0 -862879202#1 815610727"/>
    </person>
    <person id="ped49" type="ped_pedestrian" depart="35.13">
        <walk edges="944113985#0 815050292#2 944112498#0 944112498#1 944112498#2 944482040 658046541#0 658046541#1 252609866#1 426487624#1 127555654#2 658046534#1 658046534#0 828697457 382991570#2 382991570#1 382991570#0 127555668 840001645#1"/>
    </person>
    <person id="ped50" type="ped_pedestrian" depart="35.85">
        <walk edges="-1115616585#2 1112835160#6 1112835160#5 1112835160#4 1112835157#3 -1115616586#0 -1115616586#1 658046452#2 1292205156#2 658046457#2 658046463#2 658046463#3 658046463#4 387748568#1 658046470#1 -658046484#0 658046500#2 658046500#3 658046491#3 658046491#1 658046491#0 825626964#0 834856263 834856262#1 834856262#0 837304807#4 837304807#3 837304807#2 837304807#1 837304807#0 837304800#1 837304800#0 834856245#1 834856245#0 834856244#1 834856244#0 825626955#0 825626955#1 942780310#1 815611978#0 817361871#1 834856243#0 834856243#1 815606392 817407012#1 817407014#1 817407015#0 817407016 825494478#0 825494475#0"/>
    </person>
    <person id="ped51" type="ped_pedestrian" depart="36.56">
        <walk edges="817766638#2 1266262316 708051356#1 708051354#1 708051342#3 426484913#1 401265367#3 401265367#1 708051318#7 708051318#6 708051318#5 708051318#4 382991567#0 426487635#1 426487635#0 8644931#3 840001639#1 840001644#1 840001644#0 840001643#0 840001643#1 8644931#0 1323781936#3 1323781936#1 658046457#0 658046476#1 658046468#0 658046471#1 815610738 815603048 815610739#0"/>
    </person>
    <person id="ped52" type="ped_pedestrian" depart="37.28">
        <walk edges="405941852#1 825494490#2 825494628#1 825494629#0 825494621 825494622#0 8647456#12 8647456#14 8647456#15 825494518#0 815603015#1 815610746#0 823316155#1 815603016#2 815603016#3 814391425 815746544#3 815746544#2 818163464#1 818163464#2 99809125#4 99809125#1 99809124#0 99809124#1 816258729 818614244#0 818614244#1 815790477#3 815790477#4 815790477#5 815790478 815485564 815485562#1 815485562#0 658046439#0 815093888#2 8650349#1 816863449#1 944822779#1 944822779#0 815790482#3 -8638252#1 -8638252#2 -8638252#4 -8638252#6 816906869#1 816906867#1 -862890873 816906872#2 236579292 862890874#4 822088278 817426214#0 1289691147#1 817790584 817426211#3 817426210#4"/>
    </person>
    <person id="ped53" type="ped_pedestrian" depart="38.00">
        <walk edges="104210747#2 8649873#0 817426211#5 817426211#4 817790584 1289691147#1 817426214#0 822088278 862890874#4 236579292 816906872#2 -862890873 816906867#1 816906869#1 -8638252#6 -8638252#4 -8638252#2 -8638252#1 815790482#3 944822779#0 944822779#1 816863449#1 8650349#1 8650349#2 8650349#3 814391426#1 854660419#4 854660419#3 814391424#0"/>
    </person>
    <person id="ped54" type="ped_pedestrian" depart="38.71">
        <walk edges="815093882#1 815093888#1 815093888#2 -8650349#1 817426192#0 817426191 815602979#1 383937620#1 383937619#0 240473990#0 825494642 815610752 383026771#1 383026771#2 848259476 815603057#0 815603057#1 825494549#0 825494549#1 815606379 825494553#0 825494553#1 825494552 825494555#0 825494555#1 825494554#0 8652204#1"/>
    </person>
    <person id="ped55" type="ped_pedestrian" depart="39.43">
        <walk edges="844295879#0 817361880#1 817361880#0 817361877#0 817361877#2 825626955#2 825626955#1 825626955#0 834856244#0 834856244#1 834856245#0 834856245#1 837304800#0 837304800#1 837304807#0 837304807#1 837304807#2 837304807#3 837304807#4 834856262#0 834856262#1 834856263 825626964#0 658046491#0 658046491#1 658046491#3 658046500#3 658046500#2 -658046484#0 658046470#1 -387748570 -387748567#2 387748569"/>
    </person>
    <person id="ped56" type="ped_pedestrian" depart="40.15">
        <walk edges="815603047#0 815603047#1 815603047#2 815603025#0 815603024#1 818614244#0 818614244#1 815790477#3 815790477#4 815790477#5 815790478 815485564 815485562#1 815485562#0 658046439#0 815093888#1 815093882#0 1245362060#0"/>
    </person>
    <person id="ped57" type="ped_pedestrian" depart="40.86">
        <walk edges="8637728#1 -468490261#1 -871799064 8651325#1 815610740#1 823316155#3 8647456#18 825494516#1 825494517#1 827113151#1 825494602#1 945477393 842963294#3 842963294#2 842963294#1 842963294#0 825494543#3 825494543#2 825494543#1 825494543#0 842963298"/>
    </person>
    <person id="ped58" type="ped_pedestrian" depart="41.58">
        <walk edges="538554381#0 658046535#1 658046535#0 658046543 658046541#2 658046541#1 658046541#0 944482040 944112498#2 944112498#1 944112498#0 815050292#2 944113985#0 -747090068#0 767379216#0 817426200 944112495#1 817035438#1 817790585#1 817790585#0 817426209#1"/>
    </person>
    <person id="ped59" type="ped_pedestrian" depart="42.30">
        <walk edges="817361880#1 817361880#0 817361877#0 817361877#2 825626955#2 825626955#1 825626955#0 834856244#0 834856244#1 834856245#0 834856245#1 837304800#0 837304800#1 837304807#0 837304807#1 837304807#2 837304807#3 837304807#4 834856262#0 834856262#1 834856263 825626964#0 658046491#0 658046491#1 658046491#3 658046500#3 658046500#2 -658046484#0 658046470#1 387748568#1 658046463#4 658046463#3 658046463#2 658046457#2 -1323781936#2 840001632#1 840001633#1 1187856321#0 1187856316#0 1187856315#4 1187856316#2 1187856315#2 1187856316#4 1187856315#0"/>
    </person>
    <person id="ped60" type="ped_pedestrian" depart="43.02">
        <walk edges="825494535 815610730 825494530#0 825494525#0 825494524 825494625#0 825494629#0 825494621 825494622#0 8647456#12 8647456#14 8647456#15 8647456#18 823316155#3 815610740#1 815610740#2 815610740#3"/>
    </person>
    <person id="ped61" type="ped_pedestrian" depart="43.73">
        <walk edges="825494602#0 825494521#1 825494516#0 8647456#15 8647456#14 8647456#12 825494622#0 825494621 825494629#0 825494625#0 825494524 825494525#0 825494531#0 815610728#1"/>
    </person>
    <person id="ped62" type="ped_pedestrian" depart="44.45">
        <walk edges="-104210747#1 8649873#0 817426211#5 817426211#4 817426211#3 817426211#2 817426212#1 817426212#0 817426213#0 817426215#6 817426215#7 817426215#8 233651703#0 944113985#1 944113985#0 815050292#2 944112498#0 944112498#1 815050613#7 815050613#1 767378332#1 767378332#2 767378332#3 767378332#4 658046452#4 658046452#3 658046452#2 1292205156#2 658046457#0 658046476#1 658046468#0 658046471#1 658046490#1 658046490#2"/>
    </person>
    <person id="ped63" type="ped_pedestrian" depart="45.17">
        <walk edges="-1115616613 1115616610#0 -1115616609#1 -1115616585#2 -1115616585#1 -1115616585#0 785134096 785134091#3 785134089#2 816906857#1 816906857#0 944822778#1 944822778#0 816906855#2 815790482#3 815790482#1 826360101#2 8646816#1"/>
    </person>
    <person id="ped64" type="ped_pedestrian" depart="45.88">
        <walk edges="844315827#1 537303957#1 537303957#0 816938779 825626969#0 817361890#0 817361885 817361882#0 817361882#1 817361882#2 844295869 817361880#1 817361880#0 817361877#0 817361877#2 825626955#2 825626955#1 825626955#0 834856244#0 834856244#1 834856245#0 834856245#1 837304800#0 837304800#1 837304807#0 837304807#1 837304807#2 815486627#0 815486627#1 823316165#1 823316164#0 823316164#1 834856260#0 834856260#1 834856261 834856264#1 834856265#1 834856267#0 834856267#1 834856266#0 834856266#1 834856268#1 658046490#2 658046490#1 658046471#1 658046468#0 658046476#1 658046457#0 8865420#1 854660419#1 854660419#2 854660419#3 836684990 836684989"/>
    </person>
    <person id="ped65" type="ped_pedestrian" depart="46.60">
        <walk edges="658046436 864847720 767378332#4 767378332#3 767378332#2 767378332#1 815050613#1 815050613#7 944112498#1 944112498#0 815050292#2 944113985#0 -747090068#0 767379216#0 817426200 944112495#1 817035438#0 690944531#1 690944531#2 1305073610#0 1305073610#1 -815488390#3"/>
    </person>
    <person id="ped66" type="ped_pedestrian" depart="47.32">
        <walk edges="844315826#0 825626971 844315825#0 817361890#0 817361885 817361882#0 817361882#1 817361882#2 844295869 817361880#1 817361880#0 817361877#0 817361877#2 825626955#2 825626955#1 825626955#0 834856244#0 834856244#1 834856245#0 834856245#1 837304800#0 837304800#1 837304807#0 837304807#1 837304807#2 815486627#0 815486627#1 823316165#1 823316164#0 823316164#1 834856260#0 834856260#1 834856261 834856264#1 834856265#1 834856267#0 834856267#1 834856266#0 834856266#1 834856268#1 658046490#2 658046490#1 658046471#1 658046468#0 658046476#1 658046457#0 8865420#1 8865420#3 -8865420#4 -8865420#5 -863038355#0 8650349#3"/>
    </person>
    <person id="ped67" type="ped_pedestrian" depart="48.03">
        <walk edges="-8643916#1 815603009#1 815603010#0 815603016#0"/>
    </person>
    <person id="ped68" type="ped_pedestrian" depart="48.75">
        <walk edges="-823316168#0 -823316169 815606374#1 815606374#0 815610737#3 815610737#2 815610737#1 815610737#0 825494513#2 -862879202#0 -862879202#1 815610727 862879200#1 825494532#0 825494532#1"/>
    </person>