<?xml version="1.0" encoding="UTF-8"?>

<!-- generated on 2024-10-29 20:02:06.639837 by osmWebWizard.py v1_21_0+0000-d7b3b481c43
<configuration>
    <net-file value="C:\Windows\system32\2024-10-29-20-01-42\osm.net.xml.gz"/>
    <output-trip-file value="C:\Windows\system32\2024-10-29-20-01-42\osm.pedestrian.trips.xml"/>
    <route-file value="C:\Windows\system32\2024-10-29-20-01-42\osm.pedestrian.rou.xml"/>
    <pedestrians value="True"/>
    <prefix value="ped"/>
    <vehicle-class value="pedestrian"/>
    <fringe-factor value="1"/>
    <max-distance value="2000.0"/>
    <insertion-density value="100.0"/>
</configuration>
-->

<routes xmlns:xsi="http://www.w3.org/2001/XMLSchema-instance" xsi:noNamespaceSchemaLocation="http://sumo.dlr.de/xsd/routes_file.xsd">
    <vType id="ped_pedestrian" vClass="pedestrian"/>
    <person id="ped0" depart="0.00" type="ped_pedestrian">
        <walk from="817426210#0" to="-1181032038#0"/>
    </person>
    <person id="ped1" depart="0.72" type="ped_pedestrian">
        <walk from="426487635#0" to="172126949"/>
    </person>
    <person id="ped2" depart="1.43" type="ped_pedestrian">
        <walk from="825494502#2" to="817766621#0"/>
    </person>
    <person id="ped3" depart="2.15" type="ped_pedestrian">
        <walk from="854660420#1" to="-8644931#2"/>
    </person>
    <person id="ped4" depart="2.87" type="ped_pedestrian">
        <walk from="788015172#9" to="-1303174799"/>
    </person>
    <person id="ped5" depart="3.58" type="ped_pedestrian">
        <walk from="1323781936#1" to="815603050#1"/>
    </person>
    <person id="ped6" depart="4.30" type="ped_pedestrian">
        <walk from="-1241149233#0" to="1288544609"/>
    </person>
    <person id="ped7" depart="5.02" type="ped_pedestrian">
        <walk from="817426215#1" to="815610749#0"/>
    </person>
    <person id="ped8" depart="5.74" type="ped_pedestrian">
        <walk from="138827726#0" to="816934280#2"/>
    </person>
    <person id="ped9" depart="6.45" type="ped_pedestrian">
        <walk from="827113150#0" to="-1112835160#7"/>
    </person>
    <person id="ped10" depart="7.17" type="ped_pedestrian">
        <walk from="825626973#0" to="818225886#0"/>
    </person>
    <person id="ped11" depart="7.89" type="ped_pedestrian">
        <walk from="658046535#2" to="1187856316#1"/>
    </person>
    <person id="ped12" depart="8.60" type="ped_pedestrian">
        <walk from="871799065#1" to="658046530#0"/>
    </person>
    <person id="ped13" depart="9.32" type="ped_pedestrian">
        <walk from="-8648727#2" to="-8650688#1"/>
    </person>
    <person id="ped14" depart="10.04" type="ped_pedestrian">
        <walk from="837304817" to="817361866#0"/>
    </person>
    <person id="ped15" depart="10.75" type="ped_pedestrian">
        <walk from="825626975" to="825494490#1"/>
    </person>
    <person id="ped16" depart="11.47" type="ped_pedestrian">
        <walk from="815610737#3" to="944479967"/>
    </person>
    <person id="ped17" depart="12.19" type="ped_pedestrian">
        <walk from="708051351#2" to="815746544#2"/>
    </person>
    <person id="ped18" depart="12.90" type="ped_pedestrian">
        <walk from="834856268#1" to="817407012#0"/>
    </person>
    <person id="ped19" depart="13.62" type="ped_pedestrian">
        <walk from="840011309#1" to="816906859#0"/>
    </person>
    <person id="ped20" depart="14.34" type="ped_pedestrian">
        <walk from="822088244" to="-591493143#1"/>
    </person>
    <person id="ped21" depart="15.06" type="ped_pedestrian">
        <walk from="217801058#1" to="484935546#1"/>
    </person>
    <person id="ped22" depart="15.77" type="ped_pedestrian">
        <walk from="-8638252#4" to="236579292"/>
    </person>
    <person id="ped23" depart="16.49" type="ped_pedestrian">
        <walk from="-8651975#0" to="470445663#2"/>
    </person>
    <person id="ped24" depart="17.21" type="ped_pedestrian">
        <walk from="817426206#1" to="708051332#0"/>
    </person>
    <person id="ped25" depart="17.92" type="ped_pedestrian">
        <walk from="708051340#1" to="1305486341"/>
    </person>
    <person id="ped26" depart="18.64" type="ped_pedestrian">
        <walk from="405941852#1" to="8648235#0"/>
    </person>
    <person id="ped27" depart="19.36" type="ped_pedestrian">
        <walk from="817426213#1" to="817361880#1"/>
    </person>
    <person id="ped28" depart="20.07" type="ped_pedestrian">
        <walk from="122411158#1" to="825494490#0"/>
    </person>
    <person id="ped29" depart="20.79" type="ped_pedestrian">
        <walk from="1211637141#1" to="708051352#0"/>
    </person>
    <person id="ped30" depart="21.51" type="ped_pedestrian">
        <walk from="972626709#4" to="817426210#1"/>
    </person>
    <person id="ped31" depart="22.22" type="ped_pedestrian">
        <walk from="815790477#4" to="817766656#0"/>
    </person>
    <person id="ped32" depart="22.94" type="ped_pedestrian">
        <walk from="837304810#2" to="825494596"/>
    </person>
    <person id="ped33" depart="23.66" type="ped_pedestrian">
        <walk from="217801064#1" to="-138827726#1"/>
    </person>
    <person id="ped34" depart="24.38" type="ped_pedestrian">
        <walk from="658046457#0" to="409161400#0"/>
    </person>
    <person id="ped35" depart="25.09" type="ped_pedestrian">
        <walk from="1318447189#0" to="8649334"/>
    </person>
    <person id="ped36" depart="25.81" type="ped_pedestrian">
        <walk from="844295879#1" to="658046452#3"/>
    </person>
    <person id="ped37" depart="26.53" type="ped_pedestrian">
        <walk from="817426218#1" to="767378332#1"/>
    </person>
    <person id="ped38" depart="27.24" type="ped_pedestrian">
        <walk from="8638252#1" to="815093894#1"/>
    </person>
    <person id="ped39" depart="27.96" type="ped_pedestrian">
        <walk from="387748573#1" to="29830311#3"/>
    </person>
    <person id="ped40" depart="28.68" type="ped_pedestrian">
        <walk from="815790482#3" to="387748568#3"/>
    </person>
    <person id="ped41" depart="29.39" type="ped_pedestrian">
        <walk from="816906869#1" to="862886776#0"/>
    </person>
    <person id="ped42" depart="30.11" type="ped_pedestrian">
        <walk from="780534910" to="138798811"/>
    </person>
    <person id="ped43" depart="30.83" type="ped_pedestrian">
        <walk from="99809130#0" to="815603057#0"/>
    </person>
    <person id="ped44" depart="31.54" type="ped_pedestrian">
        <walk from="-8648326#0" to="-63104562#3"/>
    </person>
    <person id="ped45" depart="32.26" type="ped_pedestrian">
        <walk from="1032022088#1" to="817426197#4"/>
    </person>
    <person id="ped46" depart="32.98" type="ped_pedestrian">
        <walk from="825494641#5" to="788015172#9"/>
    </person>
    <person id="ped47" depart="33.70" type="ped_pedestrian">
        <walk from="-816934280#0" to="708051356#1"/>
    </person>
    <person id="ped48" depart="34.41" type="ped_pedestrian">
        <walk from="99809128#2" to="815610727"/>
    </person>
    <person id="ped49" depart="35.13" type="ped_pedestrian">
        <walk from="944113985#0" to="840001645#1"/>
    </person>
    <person id="ped50" depart="35.85" type="ped_pedestrian">
        <walk from="-1115616585#2" to="825494475#0"/>
    </person>
    <person id="ped51" depart="36.56" type="ped_pedestrian">
        <walk from="817766638#2" to="815610739#0"/>
    </person>
    <person id="ped52" depart="37.28" type="ped_pedestrian">
        <walk from="405941852#1" to="817426210#4"/>
    </person>
    <person id="ped53" depart="38.00" type="ped_pedestrian">
        <walk from="104210747#2" to="814391424#0"/>
    </person>
    <person id="ped54" depart="38.71" type="ped_pedestrian">
        <walk from="815093882#1" to="8652204#1"/>
    </person>
    <person id="ped55" depart="39.43" type="ped_pedestrian">
        <walk from="844295879#0" to="387748569"/>
    </person>
    <person id="ped56" depart="40.15" type="ped_pedestrian">
        <walk from="815603047#0" to="1245362060#0"/>
    </person>
    <person id="ped57" depart="40.86" type="ped_pedestrian">
        <walk from="8637728#1" to="842963298"/>
    </person>
    <person id="ped58" depart="41.58" type="ped_pedestrian">
        <walk from="538554381#0" to="817426209#1"/>
    </person>
    <person id="ped59" depart="42.30" type="ped_pedestrian">
        <walk from="817361880#1" to="1187856315#0"/>
    </person>
    <person id="ped60" depart="43.02" type="ped_pedestrian">
        <walk from="825494535" to="815610740#3"/>
    </person>
    <person id="ped61" depart="43.73" type="ped_pedestrian">
        <walk from="825494602#0" to="815610728#1"/>
    </person>
    <person id="ped62" depart="44.45" type="ped_pedestrian">
        <walk from="-104210747#1" to="658046490#2"/>
    </person>
    <person id="ped63" depart="45.17" type="ped_pedestrian">
        <walk from="-1115616613" to="8646816#1"/>
    </person>
    <person id="ped64" depart="45.88" type="ped_pedestrian">
        <walk from="844315827#1" to="836684989"/>
    </person>
    <person id="ped65" depart="46.60" type="ped_pedestrian">
        <walk from="658046436" to="-815488390#3"/>
    </person>
    <person id="ped66" depart="47.32" type="ped_pedestrian">
        <walk from="844315826#0" to="8650349#3"/>
    </person>
    <person id="ped67" depart="48.03" type="ped_pedestrian">
        <walk from="-8643916#1" to="815603016#0"/>
    </person>
    <person id="ped68" depart="48.75" type="ped_pedestrian">
        <walk from="-823316168#0" to="825494532#1"/>
    </person>
    <person id="ped69" depart="49.47" type="ped_pedestrian">
        <walk from="825494543#3" to="1113193581#1"/>
    </person>
    <person id="ped70" depart="50.18" type="ped_pedestrian">
        <walk from="815602982" to="815611980#0"/>
    </person>
    <person id="ped71" depart="50.90" type="ped_pedestrian">
        <walk from="387748573#1" to="842963302"/>
    </person>
    <person id="ped72" depart="51.62" type="ped_pedestrian">
        <walk from="788015175#0" to="1318451124#0"/>
    </person>
    <person id="ped73" depart="52.34" type="ped_pedestrian">
        <walk from="815610740#3" to="825494490#2"/>
    </person>
    <person id="ped74" depart="53.05" type="ped_pedestrian">
        <walk from="1289691147#2" to="658046442#2"/>
    </person>
    <person id="ped75" depart="53.77" type="ped_pedestrian">
        <walk from="99809125#4" to="817426215#1"/>
    </person>
    <person id="ped76" depart="54.49" type="ped_pedestrian">
        <walk from="814391430#2" to="815606388"/>
    </person>
    <person id="ped77" depart="55.20" type="ped_pedestrian">
        <walk from="1112835157#4" to="172126955#1"/>
    </person>
    <person id="ped78" depart="55.92" type="ped_pedestrian">
        <walk from="658046532" to="816906872#4"/>
    </person>
    <person id="ped79" depart="56.64" type="ped_pedestrian">
        <walk from="229350662#0" to="138827726#0"/>
    </person>
    <person id="ped80" depart="57.35" type="ped_pedestrian">
        <walk from="-837304814" to="817426201#2"/>
    </person>
    <person id="ped81" depart="58.07" type="ped_pedestrian">
        <walk from="217801064#1" to="862889528#1"/>
    </person>
    <person id="ped82" depart="58.79" type="ped_pedestrian">
        <walk from="840001643#2" to="-837304814"/>
    </person>
    <person id="ped83" depart="59.50" type="ped_pedestrian">
        <walk from="252609866#0" to="817426308#0"/>
    </person>
    <person id="ped84" depart="60.22" type="ped_pedestrian">
        <walk from="1318451127" to="1115616585#2"/>
    </person>
    <person id="ped85" depart="60.94" type="ped_pedestrian">
        <walk from="8647670#3" to="816314830#1"/>
    </person>
    <person id="ped86" depart="61.66" type="ped_pedestrian">
        <walk from="815602975" to="825494625#1"/>
    </person>
    <person id="ped87" depart="62.37" type="ped_pedestrian">
        <walk from="826360100#0" to="1281777217#1"/>
    </person>
    <person id="ped88" depart="63.09" type="ped_pedestrian">
        <walk from="-8650688#1" to="798941675#0"/>
    </person>
    <person id="ped89" depart="63.81" type="ped_pedestrian">
        <walk from="788015175#1" to="815486624#3"/>
    </person>
    <person id="ped90" depart="64.52" type="ped_pedestrian">
        <walk from="825494490#0" to="817426333"/>
    </person>
    <person id="ped91" depart="65.24" type="ped_pedestrian">
        <walk from="944822779#0" to="-8651325#1"/>
    </person>
    <person id="ped92" depart="65.96" type="ped_pedestrian">
        <walk from="782462320#1" to="658046535#0"/>
    </person>
    <person id="ped93" depart="66.67" type="ped_pedestrian">
        <walk from="840011309#1" to="341184586#1"/>
    </person>
    <person id="ped94" depart="67.39" type="ped_pedestrian">
        <walk from="1281777217#0" to="815050613#4"/>
    </person>
    <person id="ped95" depart="68.11" type="ped_pedestrian">
        <walk from="788015172#9" to="470445663#3"/>
    </person>
    <person id="ped96" depart="68.82" type="ped_pedestrian">
        <walk from="380662077#1" to="8641560#2"/>
    </person>
    <person id="ped97" depart="69.54" type="ped_pedestrian">
        <walk from="814756797#1" to="840011308"/>
    </person>
    <person id="ped98" depart="70.26" type="ped_pedestrian">
        <walk from="815611980#2" to="-747090068#2"/>
    </person>
    <person id="ped99" depart="70.98" type="ped_pedestrian">
        <walk from="99809131#2" to="837304804#1"/>
    </person>
    <person id="ped100" depart="71.69" type="ped_pedestrian">
        <walk from="944112497#1" to="8644931#3"/>
    </person>
    <person id="ped101" depart="72.41" type="ped_pedestrian">
        <walk from="837304820#1" to="1219876102#1"/>
    </person>
    <person id="ped102" depart="73.13" type="ped_pedestrian">
        <walk from="815603015#1" to="1318451126#1"/>
    </person>
    <person id="ped103" depart="73.84" type="ped_pedestrian">
        <walk from="780534913" to="-815603050#0"/>
    </person>
    <person id="ped104" depart="74.56" type="ped_pedestrian">
        <walk from="708051351#3" to="944822779#3"/>
    </person>
    <person id="ped105" depart="75.28" type="ped_pedestrian">
        <walk from="387748573#1" to="825494625#0"/>
    </person>
    <person id="ped106" depart="75.99" type="ped_pedestrian">
        <walk from="815093884" to="788015174"/>
    </person>
    <person id="ped107" depart="76.71" type="ped_pedestrian">
        <walk from="871799065#1" to="99809125#4"/>
    </person>
    <person id="ped108" depart="77.43" type="ped_pedestrian">
        <walk from="815790477#2" to="825494470#0"/>
    </person>
    <person id="ped109" depart="78.14" type="ped_pedestrian">
        <walk from="1187856316#0" to="537378993#0"/>
    </person>
    <person id="ped110" depart="78.86" type="ped_pedestrian">
        <walk from="944112497#0" to="816906861#0"/>
    </person>
    <person id="ped111" depart="79.58" type="ped_pedestrian">
        <walk from="815610746#0" to="825494517#3"/>
    </person>
    <person id="ped112" depart="80.30" type="ped_pedestrian">
        <walk from="-815488390#1" to="816906869#0"/>
    </person>
    <person id="ped113" depart="81.01" type="ped_pedestrian">
        <walk from="815603049#1" to="840001632#0"/>
    </person>
    <person id="ped114" depart="81.73" type="ped_pedestrian">
        <walk from="1187856318#0" to="8866322#1"/>
    </person>
    <person id="ped115" depart="82.45" type="ped_pedestrian">
        <walk from="-8638252#6" to="127555650#3"/>
    </person>
    <person id="ped116" depart="83.16" type="ped_pedestrian">
        <walk from="817035437#3" to="817766619#2"/>
    </person>
    <person id="ped117" depart="83.88" type="ped_pedestrian">
        <walk from="240318583" to="1112835157#1"/>
    </person>
    <person id="ped118" depart="84.60" type="ped_pedestrian">
        <walk from="854660419#2" to="29830311#2"/>
    </person>
    <person id="ped119" depart="85.31" type="ped_pedestrian">
        <walk from="817035437#2" to="817407013"/>
    </person>
    <person id="ped120" depart="86.03" type="ped_pedestrian">
        <walk from="788015172#12" to="816906867#2"/>
    </person>
    <person id="ped121" depart="86.75" type="ped_pedestrian">
        <walk from="815606416" to="8647670#1"/>
    </person>
    <person id="ped122" depart="87.46" type="ped_pedestrian">
        <walk from="1303174792#1" to="823316167"/>
    </person>
    <person id="ped123" depart="88.18" type="ped_pedestrian">
        <walk from="265282876#0" to="767378332#1"/>
    </person>
    <person id="ped124" depart="88.90" type="ped_pedestrian">
        <walk from="817426328#1" to="572839718#1"/>
    </person>
    <person id="ped125" depart="89.61" type="ped_pedestrian">
        <walk from="658046457#2" to="825494521#1"/>
    </person>
    <person id="ped126" depart="90.33" type="ped_pedestrian">
        <walk from="-846628946#0" to="815093894#0"/>
    </person>
    <person id="ped127" depart="91.05" type="ped_pedestrian">
        <walk from="99809131#0" to="99809128#2"/>
    </person>
    <person id="ped128" depart="91.77" type="ped_pedestrian">
        <walk from="-850681883" to="1318451126#0"/>
    </person>
    <person id="ped129" depart="92.48" type="ped_pedestrian">
        <walk from="387748573#1" to="8647456#3"/>
    </person>
    <person id="ped130" depart="93.20" type="ped_pedestrian">
        <walk from="845223991#2" to="844315829#0"/>
    </person>
    <person id="ped131" depart="93.92" type="ped_pedestrian">
        <walk from="708051339" to="1187856318#0"/>
    </person>
    <person id="ped132" depart="94.63" type="ped_pedestrian">
        <walk from="836684994" to="818614250#1"/>
    </person>
    <person id="ped133" depart="95.35" type="ped_pedestrian">
        <walk from="817361883#0" to="944831875"/>
    </person>
    <person id="ped134" depart="96.07" type="ped_pedestrian">
        <walk from="817426216#1" to="-1112835161#1"/>
    </person>
    <person id="ped135" depart="96.78" type="ped_pedestrian">
        <walk from="834856241" to="538645519#1"/>
    </person>
    <person id="ped136" depart="97.50" type="ped_pedestrian">
        <walk from="817426228#2" to="864847720"/>
    </person>
    <person id="ped137" depart="98.22" type="ped_pedestrian">
        <walk from="1115616588#0" to="108236232#0"/>
    </person>
    <person id="ped138" depart="98.93" type="ped_pedestrian">
        <walk from="-944495317#0" to="815747922#1"/>
    </person>
    <person id="ped139" depart="99.65" type="ped_pedestrian">
        <walk from="426484925#2" to="817361867#0"/>
    </person>
    <person id="ped140" depart="100.37" type="ped_pedestrian">
        <walk from="825494439" to="1292205156#2"/>
    </person>
    <person id="ped141" depart="101.09" type="ped_pedestrian">
        <walk from="817426205#3" to="387748571"/>
    </person>
    <person id="ped142" depart="101.80" type="ped_pedestrian">
        <walk from="815603019#0" to="862889528#1"/>
    </person>
    <person id="ped143" depart="102.52" type="ped_pedestrian">
        <walk from="837304813#0" to="-8648727#0"/>
    </person>
    <person id="ped144" depart="103.24" type="ped_pedestrian">
        <walk from="788015175#1" to="468490261#0"/>
    </person>
    <person id="ped145" depart="103.95" type="ped_pedestrian">
        <walk from="-1112835159#1" to="825494551#1"/>
    </person>
    <person id="ped146" depart="104.67" type="ped_pedestrian">
        <walk from="817426206#4" to="387748568#1"/>
    </person>
    <person id="ped147" depart="105.39" type="ped_pedestrian">
        <walk from="825494511#0" to="815746544#2"/>
    </person>
    <person id="ped148" depart="106.10" type="ped_pedestrian">
        <walk from="788015184#4" to="-1115273723#1"/>
    </person>
    <person id="ped149" depart="106.82" type="ped_pedestrian">
        <walk from="-862889528#1" to="848259476"/>
    </person>
    <person id="ped150" depart="107.54" type="ped_pedestrian">
        <walk from="862888312#0" to="815610749#1"/>
    </person>
    <person id="ped151" depart="108.25" type="ped_pedestrian">
        <walk from="836684996" to="816906866#1"/>
    </person>
    <person id="ped152" depart="108.97" type="ped_pedestrian">
        <walk from="1115616624" to="1112835163"/>
    </person>
    <person id="ped153" depart="109.69" type="ped_pedestrian">
        <walk from="658046439#1" to="862886777#1"/>
    </person>
    <person id="ped154" depart="110.41" type="ped_pedestrian">
        <walk from="825626954#0" to="840001645#1"/>
    </person>
    <person id="ped155" depart="111.12" type="ped_pedestrian">
        <walk from="862886777#0" to="1309851462"/>
    </person>
    <person id="ped156" depart="111.84" type="ped_pedestrian">
        <walk from="380662077#1" to="-871799064"/>
    </person>
    <person id="ped157" depart="112.56" type="ped_pedestrian">
        <walk from="825494619" to="850681879"/>
    </person>
    <person id="ped158" depart="113.27" type="ped_pedestrian">
        <walk from="784204804" to="817407015#0"/>
    </person>
    <person id="ped159" depart="113.99" type="ped_pedestrian">
        <walk from="1187856315#4" to="8647432#1"/>
    </person>
    <person id="ped160" depart="114.71" type="ped_pedestrian">
        <walk from="840758525#1" to="944486848#2"/>
    </person>
    <person id="ped161" depart="115.42" type="ped_pedestrian">
        <walk from="827113151#1" to="846628946#1"/>
    </person>
    <person id="ped162" depart="116.14" type="ped_pedestrian">
        <walk from="-1147916780" to="825494502#2"/>
    </person>
    <person id="ped163" depart="116.86" type="ped_pedestrian">
        <walk from="658046526#0" to="8647456#1"/>
    </person>
    <person id="ped164" depart="117.57" type="ped_pedestrian">
        <walk from="825626967#0" to="840758524"/>
    </person>
    <person id="ped165" depart="118.29" type="ped_pedestrian">
        <walk from="827113151#1" to="405941852#1"/>
    </person>
    <person id="ped166" depart="119.01" type="ped_pedestrian">
        <walk from="825494629#0" to="1007859982"/>
    </person>
    <person id="ped167" depart="119.73" type="ped_pedestrian">
        <walk from="842963301#1" to="840001643#0"/>
    </person>
    <person id="ped168" depart="120.44" type="ped_pedestrian">
        <walk from="172126948#2" to="828697459#2"/>
    </person>
    <person id="ped169" depart="121.16" type="ped_pedestrian">
        <walk from="815093895#2" to="658046402#0"/>
    </person>
    <person id="ped170" depart="121.88" type="ped_pedestrian">
        <walk from="825626953#0" to="217801058#0"/>
    </person>
    <person id="ped171" depart="122.59" type="ped_pedestrian">
        <walk from="-1115616623" to="1281786352"/>
    </person>
    <person id="ped172" depart="123.31" type="ped_pedestrian">
        <walk from="658046500#2" to="840758525#1"/>
    </person>
    <person id="ped173" depart="124.03" type="ped_pedestrian">
        <walk from="944112495#1" to="470445663#4"/>
    </person>
    <person id="ped174" depart="124.74" type="ped_pedestrian">
        <walk from="817426210#5" to="780534911#1"/>
    </person>
    <person id="ped175" depart="125.46" type="ped_pedestrian">
        <walk from="944499531#1" to="815610737#3"/>
    </person>
    <person id="ped176" depart="126.18" type="ped_pedestrian">
        <walk from="8648532#0" to="108236232#0"/>
    </person>
    <person id="ped177" depart="126.89" type="ped_pedestrian">
        <walk from="944112498#2" to="1245360520"/>
    </person>
    <person id="ped178" depart="127.61" type="ped_pedestrian">
        <walk from="915297765" to="401265367#1"/>
    </person>
    <person id="ped179" depart="128.33" type="ped_pedestrian">
        <walk from="1031513328" to="814391424#0"/>
    </person>
    <person id="ped180" depart="129.05" type="ped_pedestrian">
        <walk from="825494489#1" to="658046452#1"/>
    </person>
    <person id="ped181" depart="129.76" type="ped_pedestrian">
        <walk from="817361871#0" to="815606374#2"/>
    </person>
    <person id="ped182" depart="130.48" type="ped_pedestrian">
        <walk from="708051362#2" to="816906858"/>
    </person>
    <person id="ped183" depart="131.20" type="ped_pedestrian">
        <walk from="382991574#3" to="823307807"/>
    </person>
    <person id="ped184" depart="131.91" type="ped_pedestrian">
        <walk from="-104210747#5" to="8644931#2"/>
    </person>
    <person id="ped185" depart="132.63" type="ped_pedestrian">
        <walk from="815610740#1" to="825494470#2"/>
    </person>
    <person id="ped186" depart="133.35" type="ped_pedestrian">
        <walk from="825494511#1" to="817426320"/>
    </person>
    <person id="ped187" depart="134.06" type="ped_pedestrian">
        <walk from="708051330#1" to="-823316169"/>
    </person>
    <person id="ped188" depart="134.78" type="ped_pedestrian">
        <walk from="817426229#0" to="658046518#1"/>
    </person>
    <person id="ped189" depart="135.50" type="ped_pedestrian">
        <walk from="658046452#1" to="837304819"/>
    </person>
    <person id="ped190" depart="136.21" type="ped_pedestrian">
        <walk from="825494472" to="572839718#1"/>
    </person>
    <person id="ped191" depart="136.93" type="ped_pedestrian">
        <walk from="658046439#3" to="785134076"/>
    </person>
    <person id="ped192" depart="137.65" type="ped_pedestrian">
        <walk from="782462320#1" to="537303958#0"/>
    </person>
    <person id="ped193" depart="138.37" type="ped_pedestrian">
        <walk from="1112835163" to="788015172#6"/>
    </person>
    <person id="ped194" depart="139.08" type="ped_pedestrian">
        <walk from="8648727#0" to="817766621#1"/>
    </person>
    <person id="ped195" depart="139.80" type="ped_pedestrian">
        <walk from="862886780#2" to="817361889"/>
    </person>
    <person id="ped196" depart="140.52" type="ped_pedestrian">
        <walk from="591493143#0" to="815611978#0"/>
    </person>
    <person id="ped197" depart="141.23" type="ped_pedestrian">
        <walk from="-1032022089" to="478093933"/>
    </person>
    <person id="ped198" depart="141.95" type="ped_pedestrian">
        <walk from="798941673#1" to="816906862#0"/>
    </person>
    <person id="ped199" depart="142.67" type="ped_pedestrian">
        <walk from="817426217#1" to="815485565#0"/>
    </person>
    <person id="ped200" depart="143.38" type="ped_pedestrian">
        <walk from="814620257#4" to="1318451126#1"/>
    </person>
    <person id="ped201" depart="144.10" type="ped_pedestrian">
        <walk from="815602979#1" to="862886779#0"/>
    </person>
    <person id="ped202" depart="144.82" type="ped_pedestrian">
        <walk from="825626953#2" to="122411157#0"/>
    </person>
    <person id="ped203" depart="145.53" type="ped_pedestrian">
        <walk from="-8641560#4" to="815606385#1"/>
    </person>
    <person id="ped204" depart="146.25" type="ped_pedestrian">
        <walk from="817426205#0" to="658046529#2"/>
    </person>
    <person id="ped205" depart="146.97" type="ped_pedestrian">
        <walk from="834856243#0" to="825494521#0"/>
    </person>
    <person id="ped206" depart="147.69" type="ped_pedestrian">
        <walk from="817426332#1" to="172126955#1"/>
    </person>
    <person id="ped207" depart="148.40" type="ped_pedestrian">
        <walk from="1289691146#0" to="-1147916780"/>
    </person>
    <person id="ped208" depart="149.12" type="ped_pedestrian">
        <walk from="289468264#2" to="815602982"/>
    </person>
    <person id="ped209" depart="149.84" type="ped_pedestrian">
        <walk from="837304821#2" to="-846628946#1"/>
    </person>
    <person id="ped210" depart="150.55" type="ped_pedestrian">
        <walk from="785134090" to="817426200"/>
    </person>
    <person id="ped211" depart="151.27" type="ped_pedestrian">
        <walk from="1288544605" to="818163468"/>
    </person>
    <person id="ped212" depart="151.99" type="ped_pedestrian">
        <walk from="815603027#1" to="289468264#0"/>
    </person>
    <person id="ped213" depart="152.70" type="ped_pedestrian">
        <walk from="817426219#0" to="-1112835160#5"/>
    </person>
    <person id="ped214" depart="153.42" type="ped_pedestrian">
        <walk from="825494520#1" to="825494550"/>
    </person>
    <person id="ped215" depart="154.14" type="ped_pedestrian">
        <walk from="-943802147#1" to="788015178#0"/>
    </person>
    <person id="ped216" depart="154.85" type="ped_pedestrian">
        <walk from="1241149233#1" to="871799067#1"/>
    </person>
    <person id="ped217" depart="155.57" type="ped_pedestrian">
        <walk from="815606389#0" to="-747090068#1"/>
    </person>
    <person id="ped218" depart="156.29" type="ped_pedestrian">
        <walk from="380662077#0" to="837304819"/>
    </person>
    <person id="ped219" depart="157.01" type="ped_pedestrian">
        <walk from="815093886#1" to="825626964#4"/>
    </person>
    <person id="ped220" depart="157.72" type="ped_pedestrian">
        <walk from="817426265" to="945477393"/>
    </person>
    <person id="ped221" depart="158.44" type="ped_pedestrian">
        <walk from="817035438#0" to="8651226#1"/>
    </person>
    <person id="ped222" depart="159.16" type="ped_pedestrian">
        <walk from="854660420#0" to="817361884#1"/>
    </person>
    <person id="ped223" depart="159.87" type="ped_pedestrian">
        <walk from="825494470#2" to="815603050#0"/>
    </person>
    <person id="ped224" depart="160.59" type="ped_pedestrian">
        <walk from="834856271" to="815611978#0"/>
    </person>
    <person id="ped225" depart="161.31" type="ped_pedestrian">
        <walk from="862886775#1" to="825494513#1"/>
    </person>
    <person id="ped226" depart="162.02" type="ped_pedestrian">
        <walk from="815602981#1" to="383937620#0"/>
    </person>
    <person id="ped227" depart="162.74" type="ped_pedestrian">
        <walk from="29830311#5" to="817426208#0"/>
    </person>
    <person id="ped228" depart="163.46" type="ped_pedestrian">
        <walk from="825494543#3" to="815606393"/>
    </person>