<?xml version="1.0" encoding="UTF-8"?>

<!-- generated on 2024-10-29 20:02:06.019869 by osmWebWizard.py v1_21_0+0000-d7b3b481c43
<configuration>
    <net-file value="C:\Windows\system32\2024-10-29-20-01-42\osm.net.xml.gz"/>
    <output-trip-file value="C:\Windows\system32\2024-10-29-20-01-42\osm.passenger.trips.xml"/>
    <route-file value="C:\Windows\system32\2024-10-29-20-01-42\osm.passenger.rou.xml"/>
    <prefix value="veh"/>
    <trip-attributes value="departLane=&quot;best&quot;"/>
    <fringe-start-attributes value="departSpeed=&quot;max&quot;"/>
    <vehicle-class value="passenger"/>
    <lanes value="True"/>
    <fringe-factor value="5"/>
    <allow-fringe.min-length value="1000.0"/>
    <via-edge-types value="highway.motorway,highway.motorway_link,highway.trunk_link,highway.primary_link,highway.secondary_link,highway.tertiary_link"/>
    <min-distance value="300.0"/>
    <min-distance.fringe value="10.0"/>
    <remove-loops value="True"/>
    <validate value="True"/>
    <insertion-density value="120.0"/>
</configuration>
-->

<!-- generated on 2024-10-29 20:02:04 by Eclipse SUMO duarouter Version 1.21.0
<duarouterConfiguration xmlns:xsi="http://www.w3.org/2001/XMLSchema-instance" xsi:noNamespaceSchemaLocation="http://sumo.dlr.de/xsd/duarouterConfiguration.xsd">

    <input>
        <net-file value="C:\Windows\system32\2024-10-29-20-01-42\osm.net.xml.gz"/>
        <route-files value="C:\Windows\system32\2024-10-29-20-01-42\osm.passenger.trips.xml"/>
    </input>

    <output>
        <output-file value="C:\Windows\system32\2024-10-29-20-01-42\osm.passenger.trips.xml.tmp"/>
        <alternatives-output value="NUL"/>
        <write-trips value="true"/>
    </output>

    <processing>
        <remove-loops value="true"/>
    </processing>

    <time>
        <begin value="0.0"/>
        <end value="3600.0"/>
    </time>

    <report>
        <no-warnings value="true"/>
        <ignore-errors value="true"/>
        <no-step-log value="true"/>
    </report>

</duarouterConfiguration>
-->

<routes xmlns:xsi="http://www.w3.org/2001/XMLSchema-instance" xsi:noNamespaceSchemaLocation="http://sumo.dlr.de/xsd/routes_file.xsd">
    <vType id="veh_passenger" vClass="passenger"/>
    <trip id="veh0" type="veh_passenger" depart="0.00" departLane="best" from="8639327#2" to="-289468264#1"/>
    <trip id="veh1" type="veh_passenger" depart="1.04" departLane="best" from="1323781936#1" to="1154670875#1"/>
    <trip id="veh2" type="veh_passenger" depart="2.08" departLane="best" from="8644957#1" to="8641950#1"/>
    <trip id="veh4" type="veh_passenger" depart="4.16" departLane="best" from="104210747#2" to="63104587#3"/>
    <trip id="veh5" type="veh_passenger" depart="5.21" departLane="best" from="985552043#0" to="1106843295#0"/>
    <trip id="veh7" type="veh_passenger" depart="7.29" departLane="best" from="1106843295#0" to="823316160"/>
    <trip id="veh8" type="veh_passenger" depart="8.33" departLane="best" from="8647891#1" to="-1196041856"/>
    <trip id="veh10" type="veh_passenger" depart="10.41" departLane="best" from="380662068" to="1031513328"/>
    <trip id="veh13" type="veh_passenger" depart="13.54" departLane="best" from="8647849#0" to="-8646506#0"/>
    <trip id="veh14" type="veh_passenger" depart="14.58" departLane="best" from="63104564#3" to="972626709#4"/>
    <trip id="veh15" type="veh_passenger" depart="15.62" departLane="best" from="8649075#1" to="8636143"/>
    <trip id="veh16" type="veh_passenger" depart="16.66" departLane="best" departSpeed="max" from="8642149#0" to="-426484913#3"/>
    <trip id="veh17" type="veh_passenger" depart="17.70" departLane="best" from="1106843296" to="163516970#0"/>
    <trip id="veh18" type="veh_passenger" depart="18.74" departLane="best" from="825494585#2" to="-1196041856"/>
    <trip id="veh19" type="veh_passenger" depart="19.78" departLane="best" from="8641560#1" to="138827726#0"/>
    <trip id="veh21" type="veh_passenger" depart="21.86" departLane="best" from="-8866322#2" to="8646389#3"/>
    <trip id="veh22" type="veh_passenger" depart="22.91" departLane="best" departSpeed="max" from="-8651358#1" to="426456594#3"/>
    <trip id="veh23" type="veh_passenger" depart="23.95" departLane="best" from="1106843296" to="-380662067#2"/>
    <trip id="veh25" type="veh_passenger" depart="26.03" departLane="best" departSpeed="max" from="104210747#1" to="8865425#5"/>
    <trip id="veh26" type="veh_passenger" depart="27.07" departLane="best" from="8641560#1" to="289468264#0"/>
    <trip id="veh28" type="veh_passenger" depart="29.15" departLane="best" from="8652409#0" to="533466403#0"/>
    <trip id="veh29" type="veh_passenger" depart="30.19" departLane="best" from="1223509838#2" to="1317061159"/>
    <trip id="veh30" type="veh_passenger" depart="31.24" departLane="best" from="747090068#4" to="138827679#0"/>
    <trip id="veh31" type="veh_passenger" depart="32.28" departLane="best" from="823316159#0" to="8651358#1"/>
    <trip id="veh32" type="veh_passenger" depart="33.32" departLane="best" from="426456611#0" to="1147916780"/>
    <trip id="veh33" type="veh_passenger" depart="34.36" departLane="best" from="-985552044#8" to="63104587#3"/>
    <trip id="veh35" type="veh_passenger" depart="36.44" departLane="best" from="-8642454#0" to="8638252#4"/>
    <trip id="veh36" type="veh_passenger" depart="37.48" departLane="best" from="8647432#1" to="426484925#2"/>
    <trip id="veh37" type="veh_passenger" depart="38.52" departLane="best" departSpeed="max" from="-749812082#2" to="426456601#1"/>
    <trip id="veh38" type="veh_passenger" depart="39.56" departLane="best" from="-985552044#4" to="63106577#1"/>
    <trip id="veh39" type="veh_passenger" depart="40.61" departLane="best" from="8866322#1" to="8650619#1"/>
    <trip id="veh40" type="veh_passenger" depart="41.65" departLane="best" departSpeed="max" from="-138827709#1" to="8645388#3"/>
    <trip id="veh41" type="veh_passenger" depart="42.69" departLane="best" departSpeed="max" from="8641399#0" to="747090068#1"/>
    <trip id="veh42" type="veh_passenger" depart="43.73" departLane="best" departSpeed="max" from="-8642454#1" to="426487627#0"/>
    <trip id="veh43" type="veh_passenger" depart="44.77" departLane="best" from="426487624#1" to="-8866322#2"/>
    <trip id="veh44" type="veh_passenger" depart="45.81" departLane="best" from="8641560#1" to="138827679#0"/>
    <trip id="veh45" type="veh_passenger" depart="46.85" departLane="best" from="591493143#0" to="103553906#1"/>
    <trip id="veh46" type="veh_passenger" depart="47.89" departLane="best" from="138827726#1" to="8639232"/>
    <trip id="veh47" type="veh_passenger" depart="48.94" departLane="best" from="863038355#0" to="985552044#7"/>
    <trip id="veh49" type="veh_passenger" depart="51.02" departLane="best" from="8646962#0" to="63106623#0"/>
    <trip id="veh50" type="veh_passenger" depart="52.06" departLane="best" from="103553904#1" to="-380662067#2"/>
    <trip id="veh51" type="veh_passenger" depart="53.10" departLane="best" from="289468264#0" to="879039476#0"/>
    <trip id="veh52" type="veh_passenger" depart="54.14" departLane="best" from="8650674#2" to="8649630#9"/>
    <trip id="veh55" type="veh_passenger" depart="57.26" departLane="best" from="-426487635#0" to="749812082#1"/>
    <trip id="veh57" type="veh_passenger" depart="59.35" departLane="best" departSpeed="max" from="103554256#0" to="289468262#2"/>
    <trip id="veh58" type="veh_passenger" depart="60.39" departLane="best" from="380662067#1" to="823316160"/>
    <trip id="veh59" type="veh_passenger" depart="61.43" departLane="best" from="1106843296" to="1147916780"/>
    <trip id="veh62" type="veh_passenger" depart="64.55" departLane="best" from="8650337#1" to="-825494585#5"/>
    <trip id="veh63" type="veh_passenger" depart="65.59" departLane="best" departSpeed="max" from="8690437#0" to="815603050#0"/>
    <trip id="veh64" type="veh_passenger" depart="66.64" departLane="best" from="-426487635#0" to="8647891#1"/>
    <trip id="veh65" type="veh_passenger" depart="67.68" departLane="best" from="8640929#4" to="426487624#3"/>
    <trip id="veh68" type="veh_passenger" depart="70.80" departLane="best" departSpeed="max" from="426456618#0" to="380662072#0"/>
    <trip id="veh69" type="veh_passenger" depart="71.84" departLane="best" from="8650349#1" to="1317061159"/>
    <trip id="veh70" type="veh_passenger" depart="72.88" departLane="best" from="-985552044#4" to="426487635#1"/>
    <trip id="veh72" type="veh_passenger" depart="74.96" departLane="best" from="1160123819" to="8652409#4"/>
    <trip id="veh73" type="veh_passenger" depart="76.01" departLane="best" from="426472927#1" to="8650619#1"/>
    <trip id="veh74" type="veh_passenger" depart="77.05" departLane="best" from="8651340#0" to="-426487635#0"/>
    <trip id="veh75" type="veh_passenger" depart="78.09" departLane="best" from="-985552044#8" to="8650333#1"/>
    <trip id="veh77" type="veh_passenger" depart="80.17" departLane="best" from="533511492#1" to="1123326681#0"/>
    <trip id="veh78" type="veh_passenger" depart="81.21" departLane="best" from="426456611#0" to="-533511492#1"/>
    <trip id="veh79" type="veh_passenger" depart="82.25" departLane="best" from="1223509838#2" to="8647891#1"/>
    <trip id="veh80" type="veh_passenger" depart="83.29" departLane="best" departSpeed="max" from="8865426#0" to="985552044#2"/>
    <trip id="veh81" type="veh_passenger" depart="84.34" departLane="best" from="747090068#2" to="8645388#1"/>
    <trip id="veh83" type="veh_passenger" depart="86.42" departLane="best" from="63106577#0" to="8646962#1"/>
    <trip id="veh84" type="veh_passenger" depart="87.46" departLane="best" departSpeed="max" from="-63104587#3" to="817361888"/>
    <trip id="veh85" type="veh_passenger" depart="88.50" departLane="best" from="591493143#1" to="8650619#1"/>
    <trip id="veh86" type="veh_passenger" depart="89.54" departLane="best" from="426487629#0" to="929580949"/>
    <trip id="veh87" type="veh_passenger" depart="90.58" departLane="best" from="825494585#3" to="104210747#5"/>
    <trip id="veh88" type="veh_passenger" depart="91.62" departLane="best" from="825494585#2" to="-8641560#4"/>
    <trip id="veh89" type="veh_passenger" depart="92.66" departLane="best" from="1123326681#0" to="8648025#0"/>
    <trip id="veh90" type="veh_passenger" depart="93.71" departLane="best" from="825494585#2" to="8636143"/>
    <trip id="veh91" type="veh_passenger" depart="94.75" departLane="best" from="426456625#1" to="817361888"/>
    <trip id="veh92" type="veh_passenger" depart="95.79" departLane="best" departSpeed="max" from="591493144#0" to="8865420#1"/>
    <trip id="veh93" type="veh_passenger" depart="96.83" departLane="best" from="1123326681#2" to="426456630#1"/>
    <trip id="veh98" type="veh_passenger" depart="102.04" departLane="best" from="420495586#1" to="1031513328"/>
    <trip id="veh99" type="veh_passenger" depart="103.08" departLane="best" from="-8649468#0" to="8644931#1"/>
    <trip id="veh100" type="veh_passenger" depart="104.12" departLane="best" from="8636143" to="985552044#11"/>
    <trip id="veh102" type="veh_passenger" depart="106.20" departLane="best" from="-8648025#0" to="199586487#2"/>
    <trip id="veh103" type="veh_passenger" depart="107.24" departLane="best" from="8640929#5" to="8865420#5"/>
    <trip id="veh104" type="veh_passenger" depart="108.28" departLane="best" departSpeed="max" from="-8647156#1" to="8646816#1"/>
    <trip id="veh105" type="veh_passenger" depart="109.32" departLane="best" from="8641950#1" to="749812082#2"/>
    <trip id="veh106" type="veh_passenger" depart="110.36" departLane="best" from="1317061159" to="-825494585#6"/>
    <trip id="veh107" type="veh_passenger" depart="111.41" departLane="best" from="8642281#1" to="1106843295#1"/>
    <trip id="veh111" type="veh_passenger" depart="115.57" departLane="best" from="-1323781936#2" to="8647351#7"/>
    <trip id="veh112" type="veh_passenger" depart="116.61" departLane="best" from="8645083#3" to="749812082#2"/>
    <trip id="veh114" type="veh_passenger" depart="118.69" departLane="best" departSpeed="max" from="8651975#0" to="747090068#4"/>
    <trip id="veh115" type="veh_passenger" depart="119.74" departLane="best" departSpeed="max" from="139937095" to="8651358#1"/>
    <trip id="veh116" type="veh_passenger" depart="120.78" departLane="best" departSpeed="max" from="8647456#0" to="8650619#1"/>
    <trip id="veh117" type="veh_passenger" depart="121.82" departLane="best" departSpeed="max" from="8651975#0" to="1106843297#1"/>
    <trip id="veh118" type="veh_passenger" depart="122.86" departLane="best" from="8646962#1" to="8651161#2"/>
    <trip id="veh119" type="veh_passenger" depart="123.90" departLane="best" departSpeed="max" from="426456618#0" to="8636684#1"/>
    <trip id="veh121" type="veh_passenger" depart="125.98" departLane="best" from="8650349#2" to="985552044#0"/>
    <trip id="veh122" type="veh_passenger" depart="127.02" departLane="best" from="8647891#2" to="8650688#1"/>
    <trip id="veh123" type="veh_passenger" depart="128.06" departLane="best" from="289468264#2" to="8646564#1"/>
    <trip id="veh124" type="veh_passenger" depart="129.11" departLane="best" from="289468264#0" to="879039477"/>
    <trip id="veh125" type="veh_passenger" depart="130.15" departLane="best" from="8647891#2" to="138827688#1"/>
    <trip id="veh126" type="veh_passenger" depart="131.19" departLane="best" from="8647351#1" to="8644931#1"/>
    <trip id="veh128" type="veh_passenger" depart="133.27" departLane="best" from="1106843295#0" to="8649873#0"/>
    <trip id="veh129" type="veh_passenger" depart="134.31" departLane="best" from="426487624#3" to="217801050#1"/>
    <trip id="veh130" type="veh_passenger" depart="135.35" departLane="best" departSpeed="max" from="8647456#0" to="1160123819"/>
    <trip id="veh131" type="veh_passenger" depart="136.39" departLane="best" from="289468264#2" to="104210747#5"/>
    <trip id="veh132" type="veh_passenger" depart="137.44" departLane="best" from="8865426#9" to="138827726#1"/>
    <trip id="veh134" type="veh_passenger" depart="139.52" departLane="best" departSpeed="max" from="8690437#0" to="8646816#1"/>
    <trip id="veh135" type="veh_passenger" depart="140.56" departLane="best" from="8866322#1" to="103553906#1"/>
    <trip id="veh136" type="veh_passenger" depart="141.60" departLane="best" from="8641950#2" to="426487627#0"/>
    <trip id="veh137" type="veh_passenger" depart="142.64" departLane="best" from="846628946#1" to="63104590#1"/>
    <trip id="veh138" type="veh_passenger" depart="143.68" departLane="best" from="1188194571#1" to="8644957#1"/>
    <trip id="veh140" type="veh_passenger" depart="145.76" departLane="best" from="8645083#3" to="-8641560#1"/>
    <trip id="veh141" type="veh_passenger" depart="146.81" departLane="best" departSpeed="max" from="41940341#0" to="-825494585#3"/>
    <trip id="veh142" type="veh_passenger" depart="147.85" departLane="best" departSpeed="max" from="8641399#0" to="380662069#2"/>
    <trip id="veh144" type="veh_passenger" depart="149.93" departLane="best" from="8642281#2" to="199586487#2"/>
    <trip id="veh145" type="veh_passenger" depart="150.97" departLane="best" departSpeed="max" from="426456618#0" to="199586487#0"/>
    <trip id="veh146" type="veh_passenger" depart="152.01" departLane="best" departSpeed="max" from="-8646916#1" to="-426484913#3"/>
    <trip id="veh147" type="veh_passenger" depart="153.05" departLane="best" from="879039476#0" to="8641950#2"/>
    <trip id="veh148" type="veh_passenger" depart="154.09" departLane="best" departSpeed="max" from="8651975#0" to="863038355#0"/>
    <trip id="veh149" type="veh_passenger" depart="155.14" departLane="best" departSpeed="max" from="138863692#0" to="747090074"/>
    <trip id="veh150" type="veh_passenger" depart="156.18" departLane="best" from="103553904#1" to="1126704040#1"/>
    <trip id="veh151" type="veh_passenger" depart="157.22" departLane="best" from="426456649#0" to="817361888"/>
    <trip id="veh153" type="veh_passenger" depart="159.30" departLane="best" from="426472927#1" to="1123326681#0"/>
    <trip id="veh154" type="veh_passenger" depart="160.34" departLane="best" from="-426487635#0" to="8651358#1"/>
    <trip id="veh155" type="veh_passenger" depart="161.38" departLane="best" departSpeed="max" from="8647456#0" to="1031513328"/>
    <trip id="veh156" type="veh_passenger" depart="162.42" departLane="best" from="-8636143" to="63104590#4"/>
    <trip id="veh157" type="veh_passenger" depart="163.46" departLane="best" from="-8639232" to="380662072#0"/>
    <trip id="veh158" type="veh_passenger" depart="164.51" departLane="best" from="8648451#1" to="8647038#3"/>
    <trip id="veh159" type="veh_passenger" depart="165.55" departLane="best" departSpeed="max" from="103554256#0" to="-289468264#0"/>
    <trip id="veh160" type="veh_passenger" depart="166.59" departLane="best" from="1147916780" to="538645519#1"/>
    <trip id="veh162" type="veh_passenger" depart="168.67" departLane="best" departSpeed="max" from="426456618#0" to="8638252#5"/>
    <trip id="veh164" type="veh_passenger" depart="170.75" departLane="best" from="591217313#0" to="1284186043#1"/>
    <trip id="veh167" type="veh_passenger" depart="173.88" departLane="best" from="-8641560#4" to="426484925#2"/>
    <trip id="veh168" type="veh_passenger" depart="174.92" departLane="best" from="-944116814" to="929580949"/>
    <trip id="veh170" type="veh_passenger" depart="177.00" departLane="best" from="426487627#1" to="8648635"/>
    <trip id="veh171" type="veh_passenger" depart="178.04" departLane="best" departSpeed="max" from="8641399#0" to="985552044#11"/>
    <trip id="veh172" type="veh_passenger" depart="179.08" departLane="best" from="825494585#3" to="8865427#0"/>
    <trip id="veh173" type="veh_passenger" depart="180.12" departLane="best" from="8651325#3" to="846628946#1"/>
    <trip id="veh174" type="veh_passenger" depart="181.16" departLane="best" from="8642281#2" to="63104587#1"/>
    <trip id="veh175" type="veh_passenger" depart="182.21" departLane="best" from="8649075#1" to="747090074"/>
    <trip id="veh176" type="veh_passenger" depart="183.25" departLane="best" from="8651839#1" to="8646916#1"/>
    <trip id="veh177" type="veh_passenger" depart="184.29" departLane="best" from="-426487635#0" to="138827669#1"/>
    <trip id="veh179" type="veh_passenger" depart="186.37" departLane="best" from="8638991#0" to="138827717#0"/>
    <trip id="veh181" type="veh_passenger" depart="188.45" departLane="best" from="1317061159" to="289468264#1"/>
    <trip id="veh182" type="veh_passenger" depart="189.49" departLane="best" departSpeed="max" from="8642149#0" to="749812082#1"/>
    <trip id="veh183" type="veh_passenger" depart="190.54" departLane="best" departSpeed="max" from="426456618#0" to="747090068#3"/>
    <trip id="veh184" type="veh_passenger" depart="191.58" departLane="best" from="426456618#1" to="823316162#0"/>
    <trip id="veh185" type="veh_passenger" depart="192.62" departLane="best" from="823316159#0" to="8644647#0"/>
    <trip id="veh187" type="veh_passenger" depart="194.70" departLane="best" from="426456625#1" to="8646962#1"/>
    <trip id="veh188" type="veh_passenger" depart="195.74" departLane="best" from="63106623#1" to="-825494585#3"/>
    <trip id="veh189" type="veh_passenger" depart="196.78" departLane="best" from="426472927#0" to="-289468264#3"/>
    <trip id="veh190" type="veh_passenger" depart="197.82" departLane="best" from="289468264#2" to="8642281#1"/>
    <trip id="veh191" type="veh_passenger" depart="198.86" departLane="best" departSpeed="max" from="426456618#0" to="1031513328"/>
    <trip id="veh193" type="veh_passenger" depart="200.95" departLane="best" from="8638252#5" to="-289468264#1"/>
    <trip id="veh195" type="veh_passenger" depart="203.03" departLane="best" departSpeed="max" from="-8647156#1" to="533466405"/>
    <trip id="veh196" type="veh_passenger" depart="204.07" departLane="best" from="533511492#1" to="426456594#3"/>
    <trip id="veh197" type="veh_passenger" depart="205.11" departLane="best" departSpeed="max" from="104210747#1" to="380662069#0"/>
    <trip id="veh199" type="veh_passenger" depart="207.19" departLane="best" from="1166056604#1" to="8640516#0"/>
    <trip id="veh200" type="veh_passenger" depart="208.24" departLane="best" from="-985552044#8" to="380662081#1"/>
    <trip id="veh203" type="veh_passenger" depart="211.36" departLane="best" from="289468264#0" to="985552044#7"/>
    <trip id="veh205" type="veh_passenger" depart="213.44" departLane="best" from="8641950#2" to="8647351#6"/>
    <trip id="veh207" type="veh_passenger" depart="215.52" departLane="best" from="8648451#1" to="972626709#2"/>
    <trip id="veh208" type="veh_passenger" depart="216.56" departLane="best" from="8641950#2" to="-289468264#1"/>
    <trip id="veh209" type="veh_passenger" depart="217.61" departLane="best" from="163516970#0" to="8641950#2"/>
    <trip id="veh210" type="veh_passenger" depart="218.65" departLane="best" from="8642281#1" to="8638991#1"/>
    <trip id="veh211" type="veh_passenger" depart="219.69" departLane="best" from="8641560#1" to="8638252#4"/>
    <trip id="veh212" type="veh_passenger" depart="220.73" departLane="best" from="8641560#2" to="8647432#1"/>
    <trip id="veh214" type="veh_passenger" depart="222.81" departLane="best" from="-8644931#2" to="985552044#11"/>
    <trip id="veh215" type="veh_passenger" depart="223.85" departLane="best" from="426456649#0" to="426456589"/>
    <trip id="veh216" type="veh_passenger" depart="224.89" departLane="best" from="591493143#2" to="380662074#0"/>
    <trip id="veh218" type="veh_passenger" depart="226.98" departLane="best" from="8641560#4" to="929580949"/>
    <trip id="veh219" type="veh_passenger" depart="228.02" departLane="best" from="8639327#0" to="8649630#9"/>
    <trip id="veh220" type="veh_passenger" depart="229.06" departLane="best" departSpeed="max" from="8642149#0" to="426487627#0"/>
    <trip id="veh221" type="veh_passenger" depart="230.10" departLane="best" from="1317061159" to="8648769"/>
    <trip id="veh223" type="veh_passenger" depart="232.18" departLane="best" from="426472927#0" to="8646520#1"/>
    <trip id="veh224" type="veh_passenger" depart="233.22" departLane="best" from="1284186043#3" to="8650619#1"/>
    <trip id="veh225" type="veh_passenger" depart="234.26" departLane="best" from="8649075#1" to="-8640929#6"/>
    <trip id="veh227" type="veh_passenger" depart="236.35" departLane="best" from="426456582#0" to="-289468264#3"/>
    <trip id="veh229" type="veh_passenger" depart="238.43" departLane="best" departSpeed="max" from="104210747#1" to="8648025#1"/>
    <trip id="veh230" type="veh_passenger" depart="239.47" departLane="best" from="380662068" to="8650688#1"/>
    <trip id="veh231" type="veh_passenger" depart="240.51" departLane="best" departSpeed="max" from="8642149#0" to="138827726#0"/>
    <trip id="veh232" type="veh_passenger" depart="241.55" departLane="best" departSpeed="max" from="-138827709#1" to="8865426#8"/>
    <trip id="veh233" type="veh_passenger" depart="242.59" departLane="best" from="8638991#0" to="8645388#2"/>
    <trip id="veh235" type="veh_passenger" depart="244.68" departLane="best" from="8641560#1" to="8639327#2"/>
    <trip id="veh236" type="veh_passenger" depart="245.72" departLane="best" from="985552043#0" to="8647941#3"/>
    <trip id="veh238" type="veh_passenger" depart="247.80" departLane="best" from="8641560#1" to="289462997#1"/>
    <trip id="veh239" type="veh_passenger" depart="248.84" departLane="best" from="823316157" to="538645519#1"/>
    <trip id="veh240" type="veh_passenger" depart="249.88" departLane="best" from="63104562#2" to="426484925#2"/>
    <trip id="veh242" type="veh_passenger" depart="251.96" departLane="best" departSpeed="max" from="8642149#0" to="138827709#1"/>
    <trip id="veh243" type="veh_passenger" depart="253.01" departLane="best" from="1160123819" to="-8648527#0"/>
    <trip id="veh244" type="veh_passenger" depart="254.05" departLane="best" from="-985552044#8" to="8648025#0"/>
    <trip id="veh245" type="veh_passenger" depart="255.09" departLane="best" from="63104564#3" to="8647350#1"/>
    <trip id="veh246" type="veh_passenger" depart="256.13" departLane="best" from="944116814" to="63104590#4"/>
    <trip id="veh247" type="veh_passenger" depart="257.17" departLane="best" from="138827669#1" to="-8644647#0"/>
    <trip id="veh248" type="veh_passenger" depart="258.21" departLane="best" from="103553906#0" to="1160123819"/>
    <trip id="veh249" type="veh_passenger" depart="259.25" departLane="best" from="944109700#2" to="749812082#2"/>
    <trip id="veh250" type="veh_passenger" depart="260.29" departLane="best" from="8641560#4" to="8649468#2"/>
    <trip id="veh253" type="veh_passenger" depart="263.42" departLane="best" departSpeed="max" from="-985552044#11" to="426487635#1"/>
    <trip id="veh254" type="veh_passenger" depart="264.46" departLane="best" from="879039476#0" to="538645519#1"/>
    <trip id="veh255" type="veh_passenger" depart="265.50" departLane="best" departSpeed="max" from="8648527#0" to="426456637"/>
    <trip id="veh256" type="veh_passenger" depart="266.54" departLane="best" from="-63104587#2" to="985552044#10"/>
    <trip id="veh257" type="veh_passenger" depart="267.58" departLane="best" from="747090074" to="217801050#1"/>
    <trip id="veh258" type="veh_passenger" depart="268.62" departLane="best" from="-985552044#10" to="8647432#1"/>
    <trip id="veh261" type="veh_passenger" depart="271.75" departLane="best" from="426472927#1" to="8650619#1"/>
    <trip id="veh262" type="veh_passenger" depart="272.79" departLane="best" from="-985552044#0" to="289462997#1"/>
    <trip id="veh263" type="veh_passenger" depart="273.83" departLane="best" from="8638252#4" to="834856246"/>
    <trip id="veh264" type="veh_passenger" depart="274.87" departLane="best" from="8645083#3" to="8865426#6"/>
    <trip id="veh265" type="veh_passenger" depart="275.91" departLane="best" departSpeed="max" from="104210747#1" to="1117928632#0"/>
    <trip id="veh266" type="veh_passenger" depart="276.95" departLane="best" departSpeed="max" from="8640929#2" to="1031513328"/>
    <trip id="veh267" type="veh_passenger" depart="277.99" departLane="best" from="944109700#2" to="-8638991#0"/>
    <trip id="veh269" type="veh_passenger" depart="280.08" departLane="best" from="426456611#0" to="8644931#3"/>
    <trip id="veh271" type="veh_passenger" depart="282.16" departLane="best" from="8641399#5" to="8652409#6"/>
    <trip id="veh272" type="veh_passenger" depart="283.20" departLane="best" from="8647351#1" to="8638252#2"/>
    <trip id="veh273" type="veh_passenger" depart="284.24" departLane="best" from="8640929#3" to="8865420#1"/>
    <trip id="veh274" type="veh_passenger" depart="285.28" departLane="best" from="426456637" to="747090068#4"/>
    <trip id="veh275" type="veh_passenger" depart="286.32" departLane="best" from="8648789#2" to="-825494585#6"/>
    <trip id="veh276" type="veh_passenger" depart="287.36" departLane="best" from="-8865420#3" to="289468262#0"/>
    <trip id="veh278" type="veh_passenger" depart="289.45" departLane="best" from="591217313#0" to="8640516#0"/>
    <trip id="veh279" type="veh_passenger" depart="290.49" departLane="best" from="426487635#1" to="426487624#3"/>
    <trip id="veh280" type="veh_passenger" depart="291.53" departLane="best" from="289468262#0" to="-1323781936#2"/>
    <trip id="veh282" type="veh_passenger" depart="293.61" departLane="best" departSpeed="max" from="8649527#0" to="815603050#3"/>
    <trip id="veh283" type="veh_passenger" depart="294.65" departLane="best" from="-8865420#4" to="985552044#7"/>
    <trip id="veh284" type="veh_passenger" depart="295.69" departLane="best" departSpeed="max" from="8641399#0" to="138827709#1"/>
    <trip id="veh285" type="veh_passenger" depart="296.74" departLane="best" from="-426487635#1" to="8647156#1"/>
    <trip id="veh286" type="veh_passenger" depart="297.78" departLane="best" from="426487629#0" to="8640516#0"/>
    <trip id="veh287" type="veh_passenger" depart="298.82" departLane="best" from="8652409#1" to="104210747#2"/>
    <trip id="veh288" type="veh_passenger" depart="299.86" departLane="best" from="823316159#1" to="8638991#1"/>
    <trip id="veh289" type="veh_passenger" depart="300.90" departLane="best" from="-537307165#1" to="-8641560#2"/>
    <trip id="veh290" type="veh_passenger" depart="301.94" departLane="best" from="380662074#0" to="380662072#0"/>
    <trip id="veh291" type="veh_passenger" depart="302.98" departLane="best" departSpeed="max" from="8641399#0" to="8650619#1"/>
    <trip id="veh292" type="veh_passenger" depart="304.02" departLane="best" from="289468264#0" to="8643916#1"/>
    <trip id="veh293" type="veh_passenger" depart="305.06" departLane="best" from="8647941#2" to="749812082#1"/>
    <trip id="veh294" type="veh_passenger" depart="306.11" departLane="best" departSpeed="max" from="426456618#0" to="63104590#4"/>
    <trip id="veh295" type="veh_passenger" depart="307.15" departLane="best" from="63106577#1" to="426472927#0"/>
    <trip id="veh296" type="veh_passenger" depart="308.19" departLane="best" departSpeed="max" from="-985552044#11" to="420495586#3"/>
    <trip id="veh298" type="veh_passenger" depart="310.27" departLane="best" from="8646520#3" to="1106843295#1"/>
    <trip id="veh300" type="veh_passenger" depart="312.35" departLane="best" from="863038355#0" to="1223509838#0"/>
    <trip id="veh301" type="veh_passenger" depart="313.39" departLane="best" from="426487629#0" to="749812082#2"/>
    <trip id="veh302" type="veh_passenger" depart="314.44" departLane="best" from="747090068#1" to="-8641560#4"/>
    <trip id="veh303" type="veh_passenger" depart="315.48" departLane="best" from="426487627#0" to="-8647350#4"/>
    <trip id="veh304" type="veh_passenger" depart="316.52" departLane="best" from="8642281#1" to="63104587#3"/>
    <trip id="veh305" type="veh_passenger" depart="317.56" departLane="best" from="1323781936#1" to="8649873#0"/>