<?xml version="1.0" encoding="UTF-8"?>

<!-- generated on 2024-10-29 20:02:01.925010 by osmWebWizard.py v1_21_0+0000-d7b3b481c43
<configuration>
    <net-file value="C:\Windows\system32\2024-10-29-20-01-42\osm.net.xml.gz"/>
    <output-trip-file value="C:\Windows\system32\2024-10-29-20-01-42\osm.motorcycle.trips.xml"/>
    <route-file value="C:\Windows\system32\2024-10-29-20-01-42\osm.motorcycle.rou.xml"/>
    <prefix value="motorcycle"/>
    <trip-attributes value="departLane=&quot;best&quot;"/>
    <fringe-start-attributes value="departSpeed=&quot;max&quot;"/>
    <vehicle-class value="motorcycle"/>
    <fringe-factor value="4"/>
    <vclass value="motorcycle"/>
    <via-edge-types value="highway.motorway,highway.motorway_link,highway.trunk_link,highway.primary_link,highway.secondary_link,highway.tertiary_link"/>
    <max-distance value="1200.0"/>
    <remove-loops value="True"/>
    <validate value="True"/>
    <insertion-density value="25.0"/>
</configuration>
-->

<!-- generated on 2024-10-29 20:02:01 by Eclipse SUMO duarouter Version 1.21.0
<duarouterConfiguration xmlns:xsi="http://www.w3.org/2001/XMLSchema-instance" xsi:noNamespaceSchemaLocation="http://sumo.dlr.de/xsd/duarouterConfiguration.xsd">

    <input>
        <net-file value="C:\Windows\system32\2024-10-29-20-01-42\osm.net.xml.gz"/>
        <route-files value="C:\Windows\system32\2024-10-29-20-01-42\osm.motorcycle.trips.xml"/>
    </input>

    <output>
        <output-file value="C:\Windows\system32\2024-10-29-20-01-42\osm.motorcycle.trips.xml.tmp"/>
        <alternatives-output value="NUL"/>
        <write-trips value="true"/>
    </output>

    <processing>
        <remove-loops value="true"/>
    </processing>

    <time>
        <begin value="0.0"/>
        <end value="3600.0"/>
    </time>

    <report>
        <no-warnings value="true"/>
        <ignore-errors value="true"/>
        <no-step-log value="true"/>
    </report>

</duarouterConfiguration>
-->

<routes xmlns:xsi="http://www.w3.org/2001/XMLSchema-instance" xsi:noNamespaceSchemaLocation="http://sumo.dlr.de/xsd/routes_file.xsd">
    <vType id="motorcycle_motorcycle" vClass="motorcycle"/>
    <trip id="motorcycle0" type="motorcycle_motorcycle" depart="0.00" departLane="best" departSpeed="max" from="8641399#0" to="-380662067#2"/>
    <trip id="motorcycle1" type="motorcycle_motorcycle" depart="5.00" departLane="best" from="1117928632#0" to="1166056604#1"/>
    <trip id="motorcycle3" type="motorcycle_motorcycle" depart="14.99" departLane="best" from="8651226#2" to="8640516#0"/>
    <trip id="motorcycle4" type="motorcycle_motorcycle" depart="19.99" departLane="best" from="426456606#0" to="-41940341#0"/>
    <trip id="motorcycle6" type="motorcycle_motorcycle" depart="29.99" departLane="best" from="289468264#1" to="104210747#5"/>
    <trip id="motorcycle7" type="motorcycle_motorcycle" depart="34.98" departLane="best" from="8641560#2" to="834856246"/>
    <trip id="motorcycle8" type="motorcycle_motorcycle" depart="39.98" departLane="best" from="-8866322#2" to="8640516#1"/>
    <trip id="motorcycle9" type="motorcycle_motorcycle" depart="44.98" departLane="best" departSpeed="max" from="8648527#0" to="-1196041856"/>
    <trip id="motorcycle10" type="motorcycle_motorcycle" depart="49.98" departLane="best" from="8648451#1" to="8646816#1"/>
    <trip id="motorcycle11" type="motorcycle_motorcycle" depart="54.97" departLane="best" departSpeed="max" from="139937095" to="-8651340#1"/>
    <trip id="motorcycle12" type="motorcycle_motorcycle" depart="59.97" departLane="best" departSpeed="max" from="8865426#0" to="380662075#2"/>
    <trip id="motorcycle13" type="motorcycle_motorcycle" depart="64.97" departLane="best" from="825494585#5" to="-8641560#1"/>
    <trip id="motorcycle16" type="motorcycle_motorcycle" depart="79.96" departLane="best" from="815603050#0" to="929580949"/>
    <trip id="motorcycle17" type="motorcycle_motorcycle" depart="84.96" departLane="best" from="380662074#2" to="8636143"/>
    <trip id="motorcycle18" type="motorcycle_motorcycle" depart="89.96" departLane="best" departSpeed="max" from="8649527#0" to="8642281#1"/>
    <trip id="motorcycle19" type="motorcycle_motorcycle" depart="94.96" departLane="best" from="8650349#1" to="8639327#2"/>
    <trip id="motorcycle21" type="motorcycle_motorcycle" depart="104.95" departLane="best" from="-985552044#10" to="199586487#2"/>
    <trip id="motorcycle23" type="motorcycle_motorcycle" depart="114.95" departLane="best" from="8638991#1" to="1126704040#1"/>
    <trip id="motorcycle24" type="motorcycle_motorcycle" depart="119.94" departLane="best" from="8640929#5" to="426456601#1"/>
    <trip id="motorcycle25" type="motorcycle_motorcycle" depart="124.94" departLane="best" from="380662069#0" to="1106843297#1"/>
    <trip id="motorcycle26" type="motorcycle_motorcycle" depart="129.94" departLane="best" from="1106843295#0" to="8865420#3"/>
    <trip id="motorcycle27" type="motorcycle_motorcycle" depart="134.94" departLane="best" from="8641560#1" to="8641560#1"/>
    <trip id="motorcycle29" type="motorcycle_motorcycle" depart="144.93" departLane="best" departSpeed="max" from="-8647156#1" to="426456649#0"/>
    <trip id="motorcycle31" type="motorcycle_motorcycle" depart="154.93" departLane="best" from="825494585#2" to="8646520#2"/>
    <trip id="motorcycle32" type="motorcycle_motorcycle" depart="159.92" departLane="best" from="8649075#1" to="8647941#1"/>
    <trip id="motorcycle33" type="motorcycle_motorcycle" depart="164.92" departLane="best" departSpeed="max" from="-985552044#11" to="-41940341#0"/>
    <trip id="motorcycle34" type="motorcycle_motorcycle" depart="169.92" departLane="best" from="138827679#1" to="138827726#1"/>
    <trip id="motorcycle35" type="motorcycle_motorcycle" depart="174.92" departLane="best" departSpeed="max" from="-8651358#1" to="8865425#1"/>
    <trip id="motorcycle36" type="motorcycle_motorcycle" depart="179.92" departLane="best" from="8650638#1" to="380662068"/>
    <trip id="motorcycle37" type="motorcycle_motorcycle" depart="184.91" departLane="best" from="8641950#2" to="426487624#3"/>
    <trip id="motorcycle38" type="motorcycle_motorcycle" depart="189.91" departLane="best" departSpeed="max" from="8651975#0" to="63104590#1"/>
    <trip id="motorcycle39" type="motorcycle_motorcycle" depart="194.91" departLane="best" departSpeed="max" from="104210747#1" to="138827669#2"/>
    <trip id="motorcycle40" type="motorcycle_motorcycle" depart="199.91" departLane="best" from="825494585#6" to="138827709#1"/>
    <trip id="motorcycle41" type="motorcycle_motorcycle" depart="204.90" departLane="best" from="8638252#2" to="8651358#1"/>
    <trip id="motorcycle42" type="motorcycle_motorcycle" depart="209.90" departLane="best" departSpeed="max" from="41940341#0" to="1154670875#1"/>
    <trip id="motorcycle43" type="motorcycle_motorcycle" depart="214.90" departLane="best" from="-985552044#4" to="815603050#1"/>
    <trip id="motorcycle44" type="motorcycle_motorcycle" depart="219.90" departLane="best" from="825494585#3" to="-533466403#0"/>
    <trip id="motorcycle46" type="motorcycle_motorcycle" depart="229.89" departLane="best" from="8647849#0" to="537307165#1"/>
    <trip id="motorcycle47" type="motorcycle_motorcycle" depart="234.89" departLane="best" departSpeed="max" from="-63104587#3" to="426456661#1"/>
    <trip id="motorcycle48" type="motorcycle_motorcycle" depart="239.89" departLane="best" from="-985552044#10" to="823316160"/>
    <trip id="motorcycle49" type="motorcycle_motorcycle" depart="244.88" departLane="best" from="8865426#9" to="8650619#1"/>
    <trip id="motorcycle50" type="motorcycle_motorcycle" depart="249.88" departLane="best" departSpeed="max" from="-138827709#1" to="8647156#1"/>
    <trip id="motorcycle51" type="motorcycle_motorcycle" depart="254.88" departLane="best" from="-8644931#0" to="-825494585#5"/>
    <trip id="motorcycle55" type="motorcycle_motorcycle" depart="274.87" departLane="best" from="8650638#1" to="138827717#0"/>
    <trip id="motorcycle56" type="motorcycle_motorcycle" depart="279.87" departLane="best" from="63104564#0" to="1031513328"/>
    <trip id="motorcycle57" type="motorcycle_motorcycle" depart="284.87" departLane="best" departSpeed="max" from="8651975#0" to="8650674#2"/>
    <trip id="motorcycle58" type="motorcycle_motorcycle" depart="289.86" departLane="best" from="1284186043#2" to="8644647#0"/>
    <trip id="motorcycle61" type="motorcycle_motorcycle" depart="304.86" departLane="best" from="8647456#12" to="426456625#1"/>
    <trip id="motorcycle63" type="motorcycle_motorcycle" depart="314.85" departLane="best" from="8650638#4" to="8649630#8"/>
    <trip id="motorcycle64" type="motorcycle_motorcycle" depart="319.85" departLane="best" from="138798811" to="63106577#1"/>
    <trip id="motorcycle67" type="motorcycle_motorcycle" depart="334.84" departLane="best" from="-749812082#1" to="8643916#1"/>
    <trip id="motorcycle69" type="motorcycle_motorcycle" depart="344.84" departLane="best" from="533511492#1" to="863038355#0"/>
    <trip id="motorcycle70" type="motorcycle_motorcycle" depart="349.84" departLane="best" departSpeed="max" from="104210747#1" to="8650688#1"/>
    <trip id="motorcycle71" type="motorcycle_motorcycle" depart="354.83" departLane="best" from="426456611#0" to="1123326681#0"/>
    <trip id="motorcycle74" type="motorcycle_motorcycle" depart="369.83" departLane="best" from="-985552044#10" to="8644931#1"/>
    <trip id="motorcycle76" type="motorcycle_motorcycle" depart="379.82" departLane="best" from="8641560#1" to="1188194571#1"/>
    <trip id="motorcycle77" type="motorcycle_motorcycle" depart="384.82" departLane="best" departSpeed="max" from="139937095" to="8640516#1"/>
    <trip id="motorcycle78" type="motorcycle_motorcycle" depart="389.82" departLane="best" departSpeed="max" from="-985552044#11" to="1154670875#1"/>
    <trip id="motorcycle79" type="motorcycle_motorcycle" depart="394.81" departLane="best" departSpeed="max" from="-749812082#2" to="8643791#0"/>
    <trip id="motorcycle80" type="motorcycle_motorcycle" depart="399.81" departLane="best" departSpeed="max" from="-985552044#11" to="8651714#0"/>
    <trip id="motorcycle81" type="motorcycle_motorcycle" depart="404.81" departLane="best" from="8650337#1" to="-825494585#6"/>
    <trip id="motorcycle82" type="motorcycle_motorcycle" depart="409.81" departLane="best" from="-985552044#8" to="-8646020#0"/>
    <trip id="motorcycle83" type="motorcycle_motorcycle" depart="414.80" departLane="best" from="-8865420#3" to="-8647350#4"/>
    <trip id="motorcycle84" type="motorcycle_motorcycle" depart="419.80" departLane="best" departSpeed="max" from="8690437#0" to="8638991#3"/>
    <trip id="motorcycle85" type="motorcycle_motorcycle" depart="424.80" departLane="best" from="-533466405" to="8648025#1"/>
    <trip id="motorcycle86" type="motorcycle_motorcycle" depart="429.80" departLane="best" departSpeed="max" from="8648527#0" to="103553906#3"/>
    <trip id="motorcycle87" type="motorcycle_motorcycle" depart="434.79" departLane="best" from="-8636143" to="591217313#0"/>
    <trip id="motorcycle88" type="motorcycle_motorcycle" depart="439.79" departLane="best" from="426456611#0" to="63104590#4"/>
    <trip id="motorcycle89" type="motorcycle_motorcycle" depart="444.79" departLane="best" from="944109700#2" to="-8641560#2"/>
    <trip id="motorcycle90" type="motorcycle_motorcycle" depart="449.79" departLane="best" from="420495586#2" to="380662077#1"/>
    <trip id="motorcycle91" type="motorcycle_motorcycle" depart="454.79" departLane="best" from="8650349#1" to="138827679#0"/>
    <trip id="motorcycle92" type="motorcycle_motorcycle" depart="459.78" departLane="best" departSpeed="max" from="-8649468#3" to="63104564#3"/>
    <trip id="motorcycle93" type="motorcycle_motorcycle" depart="464.78" departLane="best" from="426456606#0" to="163516970#0"/>
    <trip id="motorcycle94" type="motorcycle_motorcycle" depart="469.78" departLane="best" from="103553906#4" to="8652409#2"/>
    <trip id="motorcycle95" type="motorcycle_motorcycle" depart="474.78" departLane="best" from="426456661#1" to="8650619#1"/>
    <trip id="motorcycle96" type="motorcycle_motorcycle" depart="479.77" departLane="best" from="823316157" to="-533511492#1"/>
    <trip id="motorcycle97" type="motorcycle_motorcycle" depart="484.77" departLane="best" from="-985552044#8" to="8649630#9"/>
    <trip id="motorcycle98" type="motorcycle_motorcycle" depart="489.77" departLane="best" from="8865426#8" to="8652409#4"/>
    <trip id="motorcycle100" type="motorcycle_motorcycle" depart="499.76" departLane="best" from="591493143#1" to="1123326681#2"/>
    <trip id="motorcycle101" type="motorcycle_motorcycle" depart="504.76" departLane="best" from="420495586#1" to="749812082#1"/>
    <trip id="motorcycle102" type="motorcycle_motorcycle" depart="509.76" departLane="best" from="380662074#2" to="985552043#0"/>
    <trip id="motorcycle103" type="motorcycle_motorcycle" depart="514.76" departLane="best" from="104210747#2" to="8648025#1"/>
    <trip id="motorcycle104" type="motorcycle_motorcycle" depart="519.75" departLane="best" from="426484925#2" to="538645519#1"/>
    <trip id="motorcycle105" type="motorcycle_motorcycle" depart="524.75" departLane="best" departSpeed="max" from="8865426#0" to="985552044#11"/>
    <trip id="motorcycle106" type="motorcycle_motorcycle" depart="529.75" departLane="best" from="825494585#2" to="8647066#1"/>
    <trip id="motorcycle108" type="motorcycle_motorcycle" depart="539.75" departLane="best" from="8865426#6" to="8639327#5"/>
    <trip id="motorcycle109" type="motorcycle_motorcycle" depart="544.74" departLane="best" from="815603050#4" to="8647351#7"/>
    <trip id="motorcycle110" type="motorcycle_motorcycle" depart="549.74" departLane="best" departSpeed="max" from="-63104587#3" to="8639350#4"/>
    <trip id="motorcycle111" type="motorcycle_motorcycle" depart="554.74" departLane="best" from="63104564#2" to="8650349#2"/>
    <trip id="motorcycle112" type="motorcycle_motorcycle" depart="559.74" departLane="best" departSpeed="max" from="-8646916#1" to="8865427#0"/>
    <trip id="motorcycle115" type="motorcycle_motorcycle" depart="574.73" departLane="best" departSpeed="max" from="-985552044#11" to="8644931#1"/>
    <trip id="motorcycle116" type="motorcycle_motorcycle" depart="579.73" departLane="best" from="8651226#0" to="138827669#2"/>
    <trip id="motorcycle117" type="motorcycle_motorcycle" depart="584.72" departLane="best" from="8638991#3" to="8642281#1"/>
    <trip id="motorcycle118" type="motorcycle_motorcycle" depart="589.72" departLane="best" from="426456601#1" to="8649630#4"/>
    <trip id="motorcycle119" type="motorcycle_motorcycle" depart="594.72" departLane="best" from="747090068#2" to="8865420#1"/>
    <trip id="motorcycle120" type="motorcycle_motorcycle" depart="599.72" departLane="best" from="426487629#0" to="8647066#0"/>
    <trip id="motorcycle121" type="motorcycle_motorcycle" depart="604.71" departLane="best" from="-985552044#8" to="426487624#3"/>
    <trip id="motorcycle122" type="motorcycle_motorcycle" depart="609.71" departLane="best" from="8643791#0" to="217801050#1"/>
    <trip id="motorcycle123" type="motorcycle_motorcycle" depart="614.71" departLane="best" from="138827679#1" to="8647432#1"/>
    <trip id="motorcycle124" type="motorcycle_motorcycle" depart="619.71" departLane="best" departSpeed="max" from="-749812082#2" to="63104590#1"/>
    <trip id="motorcycle125" type="motorcycle_motorcycle" depart="624.71" departLane="best" from="985552044#7" to="985552044#11"/>
    <trip id="motorcycle126" type="motorcycle_motorcycle" depart="629.70" departLane="best" departSpeed="max" from="-749812082#2" to="1123326681#2"/>
    <trip id="motorcycle127" type="motorcycle_motorcycle" depart="634.70" departLane="best" from="104210747#2" to="879039477"/>
    <trip id="motorcycle128" type="motorcycle_motorcycle" depart="639.70" departLane="best" from="8641560#1" to="8651161#0"/>
    <trip id="motorcycle129" type="motorcycle_motorcycle" depart="644.70" departLane="best" from="380662069#0" to="8865420#1"/>
    <trip id="motorcycle131" type="motorcycle_motorcycle" depart="654.69" departLane="best" from="8641950#1" to="-1196041856"/>
    <trip id="motorcycle132" type="motorcycle_motorcycle" depart="659.69" departLane="best" from="8648789#2" to="217801050#1"/>
    <trip id="motorcycle133" type="motorcycle_motorcycle" depart="664.69" departLane="best" departSpeed="max" from="8642149#0" to="8865420#4"/>
    <trip id="motorcycle134" type="motorcycle_motorcycle" depart="669.68" departLane="best" departSpeed="max" from="-8642454#1" to="-8644647#0"/>
    <trip id="motorcycle137" type="motorcycle_motorcycle" depart="684.68" departLane="best" from="8646520#1" to="1106843295#0"/>
    <trip id="motorcycle138" type="motorcycle_motorcycle" depart="689.67" departLane="best" from="8640929#4" to="138827717#0"/>
    <trip id="motorcycle139" type="motorcycle_motorcycle" depart="694.67" departLane="best" departSpeed="max" from="591493144#0" to="8651714#0"/>
    <trip id="motorcycle142" type="motorcycle_motorcycle" depart="709.67" departLane="best" from="1117928632#0" to="8647891#1"/>
    <trip id="motorcycle143" type="motorcycle_motorcycle" depart="714.66" departLane="best" departSpeed="max" from="8641399#0" to="138827709#1"/>
    <trip id="motorcycle145" type="motorcycle_motorcycle" depart="724.66" departLane="best" departSpeed="max" from="426456618#0" to="-1196041856"/>
    <trip id="motorcycle146" type="motorcycle_motorcycle" depart="729.66" departLane="best" departSpeed="max" from="-749812082#2" to="8651161#2"/>
    <trip id="motorcycle147" type="motorcycle_motorcycle" depart="734.65" departLane="best" from="8651714#3" to="846628946#0"/>
    <trip id="motorcycle148" type="motorcycle_motorcycle" depart="739.65" departLane="best" departSpeed="max" from="8649527#0" to="8639350#1"/>
    <trip id="motorcycle149" type="motorcycle_motorcycle" depart="744.65" departLane="best" from="-8644931#3" to="-8646506#0"/>
    <trip id="motorcycle150" type="motorcycle_motorcycle" depart="749.65" departLane="best" from="138798811" to="8651358#1"/>
    <trip id="motorcycle151" type="motorcycle_motorcycle" depart="754.64" departLane="best" from="8647891#2" to="8650619#1"/>
    <trip id="motorcycle152" type="motorcycle_motorcycle" depart="759.64" departLane="best" from="8651325#3" to="1117928632#0"/>
    <trip id="motorcycle153" type="motorcycle_motorcycle" depart="764.64" departLane="best" from="103553906#4" to="-8641950#1"/>
    <trip id="motorcycle154" type="motorcycle_motorcycle" depart="769.64" departLane="best" from="8647456#14" to="8651161#2"/>
    <trip id="motorcycle155" type="motorcycle_motorcycle" depart="774.63" departLane="best" from="426456571#0" to="8642281#2"/>
    <trip id="motorcycle157" type="motorcycle_motorcycle" depart="784.63" departLane="best" from="8650349#2" to="929580949"/>
    <trip id="motorcycle158" type="motorcycle_motorcycle" depart="789.63" departLane="best" departSpeed="max" from="8648527#0" to="8651161#1"/>
    <trip id="motorcycle159" type="motorcycle_motorcycle" depart="794.63" departLane="best" from="289468264#0" to="8647350#4"/>
    <trip id="motorcycle160" type="motorcycle_motorcycle" depart="799.62" departLane="best" departSpeed="max" from="138863692#0" to="879039476#0"/>
    <trip id="motorcycle161" type="motorcycle_motorcycle" depart="804.62" departLane="best" from="8647941#3" to="8650619#1"/>
    <trip id="motorcycle162" type="motorcycle_motorcycle" depart="809.62" departLane="best" departSpeed="max" from="8648527#0" to="138827726#1"/>
    <trip id="motorcycle163" type="motorcycle_motorcycle" depart="814.62" departLane="best" from="8647456#3" to="8642454#0"/>
    <trip id="motorcycle165" type="motorcycle_motorcycle" depart="824.61" departLane="best" from="-944109700#2" to="8649468#2"/>
    <trip id="motorcycle166" type="motorcycle_motorcycle" depart="829.61" departLane="best" from="426487627#0" to="289468262#0"/>
    <trip id="motorcycle167" type="motorcycle_motorcycle" depart="834.61" departLane="best" from="8647891#2" to="1223509838#0"/>
    <trip id="motorcycle168" type="motorcycle_motorcycle" depart="839.60" departLane="best" departSpeed="max" from="-217801050#2" to="103553906#4"/>
    <trip id="motorcycle169" type="motorcycle_motorcycle" depart="844.60" departLane="best" from="138827726#2" to="8650619#1"/>
    <trip id="motorcycle171" type="motorcycle_motorcycle" depart="854.60" departLane="best" departSpeed="max" from="8641399#0" to="-8651340#1"/>
    <trip id="motorcycle172" type="motorcycle_motorcycle" depart="859.59" departLane="best" from="929580947#1" to="-825494585#3"/>
    <trip id="motorcycle173" type="motorcycle_motorcycle" depart="864.59" departLane="best" from="879039477" to="-8644647#0"/>
    <trip id="motorcycle174" type="motorcycle_motorcycle" depart="869.59" departLane="best" from="8865426#8" to="1031513328"/>
    <trip id="motorcycle175" type="motorcycle_motorcycle" depart="874.59" departLane="best" from="8865426#12" to="138827726#0"/>
    <trip id="motorcycle178" type="motorcycle_motorcycle" depart="889.58" departLane="best" from="8639350#1" to="815603050#3"/>
    <trip id="motorcycle179" type="motorcycle_motorcycle" depart="894.58" departLane="best" from="380662077#0" to="8639327#1"/>
    <trip id="motorcycle180" type="motorcycle_motorcycle" depart="899.58" departLane="best" departSpeed="max" from="103554256#0" to="8646962#1"/>
    <trip id="motorcycle181" type="motorcycle_motorcycle" depart="904.57" departLane="best" from="103553904#1" to="8652409#4"/>
    <trip id="motorcycle182" type="motorcycle_motorcycle" depart="909.57" departLane="best" from="815603050#1" to="8647156#1"/>
    <trip id="motorcycle184" type="motorcycle_motorcycle" depart="919.57" departLane="best" from="289468264#2" to="-825494585#6"/>
    <trip id="motorcycle185" type="motorcycle_motorcycle" depart="924.56" departLane="best" departSpeed="max" from="8642149#0" to="380662074#0"/>
    <trip id="motorcycle186" type="motorcycle_motorcycle" depart="929.56" departLane="best" from="138827679#0" to="8650333#3"/>
    <trip id="motorcycle187" type="motorcycle_motorcycle" depart="934.56" departLane="best" from="8646520#2" to="289462997#1"/>
    <trip id="motorcycle189" type="motorcycle_motorcycle" depart="944.55" departLane="best" from="420495586#2" to="217801050#1"/>
    <trip id="motorcycle190" type="motorcycle_motorcycle" depart="949.55" departLane="best" from="8641950#1" to="533600032#1"/>
    <trip id="motorcycle192" type="motorcycle_motorcycle" depart="959.55" departLane="best" from="8651714#0" to="8641950#2"/>
    <trip id="motorcycle193" type="motorcycle_motorcycle" depart="964.55" departLane="best" from="1284186043#3" to="846628946#1"/>
    <trip id="motorcycle194" type="motorcycle_motorcycle" depart="969.54" departLane="best" from="103553904#1" to="199586487#2"/>
    <trip id="motorcycle195" type="motorcycle_motorcycle" depart="974.54" departLane="best" departSpeed="max" from="426456618#0" to="8639327#5"/>
    <trip id="motorcycle196" type="motorcycle_motorcycle" depart="979.54" departLane="best" from="8641950#2" to="63104590#4"/>
    <trip id="motorcycle197" type="motorcycle_motorcycle" depart="984.54" departLane="best" from="426456649#0" to="1123326681#2"/>
    <trip id="motorcycle198" type="motorcycle_motorcycle" depart="989.53" departLane="best" from="-533466405" to="8651358#1"/>
    <trip id="motorcycle199" type="motorcycle_motorcycle" depart="994.53" departLane="best" from="8647891#2" to="985552044#0"/>
    <trip id="motorcycle201" type="motorcycle_motorcycle" depart="1004.53" departLane="best" from="8640929#4" to="380662075#0"/>
    <trip id="motorcycle202" type="motorcycle_motorcycle" depart="1009.52" departLane="best" from="8648789#3" to="8647351#7"/>
    <trip id="motorcycle203" type="motorcycle_motorcycle" depart="1014.52" departLane="best" from="8643791#1" to="1188194571#1"/>
    <trip id="motorcycle205" type="motorcycle_motorcycle" depart="1024.52" departLane="best" from="103553906#1" to="747090068#0"/>
    <trip id="motorcycle207" type="motorcycle_motorcycle" depart="1034.51" departLane="best" from="426456594#0" to="8642454#1"/>
    <trip id="motorcycle208" type="motorcycle_motorcycle" depart="1039.51" departLane="best" departSpeed="max" from="-8649468#3" to="8646564#2"/>
    <trip id="motorcycle209" type="motorcycle_motorcycle" depart="1044.51" departLane="best" departSpeed="max" from="591493144#0" to="138827669#1"/>
    <trip id="motorcycle210" type="motorcycle_motorcycle" depart="1049.51" departLane="best" from="8641950#2" to="-1196041856"/>
    <trip id="motorcycle211" type="motorcycle_motorcycle" depart="1054.50" departLane="best" from="8647038#3" to="8647849#0"/>
    <trip id="motorcycle213" type="motorcycle_motorcycle" depart="1064.50" departLane="best" from="-8648025#0" to="8865426#9"/>
    <trip id="motorcycle214" type="motorcycle_motorcycle" depart="1069.50" departLane="best" from="8651340#0" to="533511492#1"/>
    <trip id="motorcycle215" type="motorcycle_motorcycle" depart="1074.49" departLane="best" from="103553906#4" to="8650333#3"/>
    <trip id="motorcycle216" type="motorcycle_motorcycle" depart="1079.49" departLane="best" from="426487627#1" to="8648769"/>
    <trip id="motorcycle217" type="motorcycle_motorcycle" depart="1084.49" departLane="best" from="8642281#2" to="985552044#10"/>
    <trip id="motorcycle218" type="motorcycle_motorcycle" depart="1089.49" departLane="best" from="8638991#3" to="8865426#12"/>
    <trip id="motorcycle219" type="motorcycle_motorcycle" depart="1094.48" departLane="best" from="8651226#1" to="-8641560#4"/>
    <trip id="motorcycle221" type="motorcycle_motorcycle" depart="1104.48" departLane="best" departSpeed="max" from="8649527#0" to="846628946#1"/>
    <trip id="motorcycle222" type="motorcycle_motorcycle" depart="1109.48" departLane="best" from="8651325#2" to="8647351#6"/>
    <trip id="motorcycle223" type="motorcycle_motorcycle" depart="1114.47" departLane="best" from="533511492#1" to="138827709#1"/>
    <trip id="motorcycle224" type="motorcycle_motorcycle" depart="1119.47" departLane="best" from="103553906#3" to="8644647#0"/>
    <trip id="motorcycle228" type="motorcycle_motorcycle" depart="1139.46" departLane="best" from="1106843296" to="380662069#1"/>
    <trip id="motorcycle229" type="motorcycle_motorcycle" depart="1144.46" departLane="best" from="815603050#3" to="-8648527#0"/>
    <trip id="motorcycle230" type="motorcycle_motorcycle" depart="1149.46" departLane="best" departSpeed="max" from="-985552044#11" to="8646564#0"/>
    <trip id="motorcycle231" type="motorcycle_motorcycle" depart="1154.46" departLane="best" departSpeed="max" from="8646389#0" to="825494585#2"/>
    <trip id="motorcycle232" type="motorcycle_motorcycle" depart="1159.45" departLane="best" from="426456571#0" to="826634235"/>
    <trip id="motorcycle233" type="motorcycle_motorcycle" depart="1164.45" departLane="best" from="426456594#2" to="1106843296"/>
    <trip id="motorcycle234" type="motorcycle_motorcycle" depart="1169.45" departLane="best" from="426456601#1" to="8651714#0"/>
    <trip id="motorcycle235" type="motorcycle_motorcycle" depart="1174.45" departLane="best" from="8638252#2" to="8646564#1"/>
    <trip id="motorcycle237" type="motorcycle_motorcycle" depart="1184.44" departLane="best" from="380662075#0" to="-1196041856"/>
    <trip id="motorcycle239" type="motorcycle_motorcycle" depart="1194.44" departLane="best" from="426456601#1" to="8647351#7"/>
    <trip id="motorcycle240" type="motorcycle_motorcycle" depart="1199.43" departLane="best" from="823316157" to="-8640929#6"/>
    <trip id="motorcycle241" type="motorcycle_motorcycle" depart="1204.43" departLane="best" from="8866322#1" to="1154670875#1"/>
    <trip id="motorcycle242" type="motorcycle_motorcycle" depart="1209.43" departLane="best" from="426456625#2" to="-41940341#0"/>
    <trip id="motorcycle243" type="motorcycle_motorcycle" depart="1214.43" departLane="best" departSpeed="max" from="138863692#0" to="8646389#3"/>
    <trip id="motorcycle244" type="motorcycle_motorcycle" depart="1219.43" departLane="best" from="420495586#3" to="-8866322#2"/>
    <trip id="motorcycle245" type="motorcycle_motorcycle" depart="1224.42" departLane="best" from="-426487635#1" to="-8646506#0"/>
    <trip id="motorcycle247" type="motorcycle_motorcycle" depart="1234.42" departLane="best" departSpeed="max" from="41940341#0" to="8638252#5"/>
    <trip id="motorcycle249" type="motorcycle_motorcycle" depart="1244.41" departLane="best" departSpeed="max" from="-8642454#1" to="63104590#4"/>
    <trip id="motorcycle250" type="motorcycle_motorcycle" depart="1249.41" departLane="best" from="-533466405" to="426456649#0"/>
    <trip id="motorcycle251" type="motorcycle_motorcycle" depart="1254.41" departLane="best" departSpeed="max" from="-8651358#1" to="380662072#0"/>
    <trip id="motorcycle252" type="motorcycle_motorcycle" depart="1259.41" departLane="best" from="8647351#2" to="426456649#0"/>
    <trip id="motorcycle253" type="motorcycle_motorcycle" depart="1264.40" departLane="best" from="8647066#0" to="8649630#8"/>
    <trip id="motorcycle254" type="motorcycle_motorcycle" depart="1269.40" departLane="best" departSpeed="max" from="103554256#0" to="8640516#0"/>
    <trip id="motorcycle255" type="motorcycle_motorcycle" depart="1274.40" departLane="best" departSpeed="max" from="-217801050#2" to="-825494585#6"/>
    <trip id="motorcycle256" type="motorcycle_motorcycle" depart="1279.40" departLane="best" from="-985552044#8" to="420495586#3"/>
    <trip id="motorcycle257" type="motorcycle_motorcycle" depart="1284.39" departLane="best" from="8641560#2" to="8648025#0"/>
    <trip id="motorcycle259" type="motorcycle_motorcycle" depart="1294.39" departLane="best" from="8865425#2" to="104210747#5"/>
    <trip id="motorcycle261" type="motorcycle_motorcycle" depart="1304.38" departLane="best" from="8641950#1" to="-8646020#0"/>