<?xml version="1.0" encoding="UTF-8"?>

<!-- generated on 2024-10-29 20:02:20.010742 by osmWebWizard.py v1_21_0+0000-d7b3b481c43
<configuration>
    <net-file value="C:\Windows\system32\2024-10-29-20-01-42\osm.net.xml.gz"/>
    <output-trip-file value="C:\Windows\system32\2024-10-29-20-01-42\osm.truck.trips.xml"/>
    <route-file value="C:\Windows\system32\2024-10-29-20-01-42\osm.truck.rou.xml"/>
    <prefix value="truck"/>
    <trip-attributes value="departLane=&quot;best&quot;"/>
    <fringe-start-attributes value="departSpeed=&quot;max&quot;"/>
    <vehicle-class value="truck"/>
    <fringe-factor value="7"/>
    <vclass value="truck"/>
    <via-edge-types value="highway.motorway,highway.motorway_link,highway.trunk_link,highway.primary_link,highway.secondary_link,highway.tertiary_link"/>
    <min-distance value="600.0"/>
    <min-distance.fringe value="10.0"/>
    <remove-loops value="True"/>
    <validate value="True"/>
    <insertion-density value="15.0"/>
</configuration>
-->

<!-- generated on 2024-10-29 20:02:19 by Eclipse SUMO duarouter Version 1.21.0
<duarouterConfiguration xmlns:xsi="http://www.w3.org/2001/XMLSchema-instance" xsi:noNamespaceSchemaLocation="http://sumo.dlr.de/xsd/duarouterConfiguration.xsd">

    <input>
        <net-file value="C:\Windows\system32\2024-10-29-20-01-42\osm.net.xml.gz"/>
        <route-files value="C:\Windows\system32\2024-10-29-20-01-42\osm.truck.trips.xml"/>
    </input>

    <output>
        <output-file value="C:\Windows\system32\2024-10-29-20-01-42\osm.truck.trips.xml.tmp"/>
        <alternatives-output value="NUL"/>
        <write-trips value="true"/>
    </output>

    <processing>
        <remove-loops value="true"/>
    </processing>

    <time>
        <begin value="0.0"/>
        <end value="3600.0"/>
    </time>

    <report>
        <no-warnings value="true"/>
        <ignore-errors value="true"/>
        <no-step-log value="true"/>
    </report>

</duarouterConfiguration>
-->

<routes xmlns:xsi="http://www.w3.org/2001/XMLSchema-instance" xsi:noNamespaceSchemaLocation="http://sumo.dlr.de/xsd/routes_file.xsd">
    <vType id="truck_truck" vClass="truck"/>
    <trip id="truck0" type="truck_truck" depart="0.00" departLane="best" from="8640929#4" to="-380662067#2"/>
    <trip id="truck1" type="truck_truck" depart="8.33" departLane="best" departSpeed="max" from="8646732#0" to="8646541#0"/>
    <trip id="truck2" type="truck_truck" depart="16.66" departLane="best" departSpeed="max" from="8641399#0" to="863038355#0"/>
    <trip id="truck4" type="truck_truck" depart="33.32" departLane="best" from="747090068#2" to="929580949"/>
    <trip id="truck5" type="truck_truck" depart="41.65" departLane="best" departSpeed="max" from="8649527#0" to="8642454#1"/>
    <trip id="truck8" type="truck_truck" depart="66.64" departLane="best" from="825494585#2" to="163516970#0"/>
    <trip id="truck9" type="truck_truck" depart="74.96" departLane="best" departSpeed="max" from="-8646916#1" to="8647350#1"/>
    <trip id="truck10" type="truck_truck" depart="83.29" departLane="best" from="8649630#5" to="8648025#1"/>
    <trip id="truck11" type="truck_truck" depart="91.62" departLane="best" from="426487629#0" to="-380662067#2"/>
    <trip id="truck14" type="truck_truck" depart="116.61" departLane="best" departSpeed="max" from="8651975#0" to="63104590#4"/>
    <trip id="truck15" type="truck_truck" depart="124.94" departLane="best" from="380662069#2" to="1147916780"/>
    <trip id="truck16" type="truck_truck" depart="133.27" departLane="best" from="8647456#6" to="538645519#1"/>
    <trip id="truck17" type="truck_truck" depart="141.60" departLane="best" departSpeed="max" from="-63104587#3" to="-426484913#3"/>
    <trip id="truck18" type="truck_truck" depart="149.93" departLane="best" from="8865426#3" to="8650619#1"/>
    <trip id="truck20" type="truck_truck" depart="166.59" departLane="best" from="8643791#1" to="-825494585#6"/>
    <trip id="truck21" type="truck_truck" depart="174.92" departLane="best" departSpeed="max" from="104210747#1" to="8644931#0"/>
    <trip id="truck22" type="truck_truck" depart="183.25" departLane="best" from="103553904#1" to="380662072#0"/>
    <trip id="truck23" type="truck_truck" depart="191.58" departLane="best" departSpeed="max" from="-217801050#2" to="8652409#3"/>
    <trip id="truck24" type="truck_truck" depart="199.91" departLane="best" from="1117928632#0" to="63104587#1"/>
    <trip id="truck25" type="truck_truck" depart="208.24" departLane="best" from="747090068#4" to="8647350#4"/>
    <trip id="truck30" type="truck_truck" depart="249.88" departLane="best" departSpeed="max" from="-8649468#3" to="8647432#1"/>
    <trip id="truck31" type="truck_truck" depart="258.21" departLane="best" departSpeed="max" from="8690437#0" to="8639350#1"/>
    <trip id="truck32" type="truck_truck" depart="266.54" departLane="best" departSpeed="max" from="41940341#0" to="63106577#1"/>
    <trip id="truck34" type="truck_truck" depart="283.20" departLane="best" from="426456606#0" to="8650619#1"/>
    <trip id="truck36" type="truck_truck" depart="299.86" departLane="best" from="-426487635#1" to="1117928632#0"/>
    <trip id="truck37" type="truck_truck" depart="308.19" departLane="best" from="426456589" to="63106577#0"/>
    <trip id="truck38" type="truck_truck" depart="316.52" departLane="best" from="199586485#1" to="985552044#0"/>
    <trip id="truck39" type="truck_truck" depart="324.85" departLane="best" departSpeed="max" from="426456618#0" to="538645519#1"/>
    <trip id="truck40" type="truck_truck" depart="333.18" departLane="best" departSpeed="max" from="8865426#0" to="985552044#11"/>
    <trip id="truck42" type="truck_truck" depart="349.84" departLane="best" from="-8644188#1" to="217801050#1"/>
    <trip id="truck43" type="truck_truck" depart="358.16" departLane="best" from="533511492#1" to="8640516#1"/>
    <trip id="truck44" type="truck_truck" depart="366.49" departLane="best" from="-8644931#1" to="8865427#5"/>
    <trip id="truck45" type="truck_truck" depart="374.82" departLane="best" departSpeed="max" from="-749812082#2" to="1031513328"/>
    <trip id="truck46" type="truck_truck" depart="383.15" departLane="best" from="8638991#0" to="8646520#3"/>
    <trip id="truck48" type="truck_truck" depart="399.81" departLane="best" departSpeed="max" from="8642149#0" to="217801050#1"/>
    <trip id="truck49" type="truck_truck" depart="408.14" departLane="best" from="1160123819" to="8647456#14"/>
    <trip id="truck50" type="truck_truck" depart="416.47" departLane="best" from="-63106577#0" to="63104590#4"/>
    <trip id="truck51" type="truck_truck" depart="424.80" departLane="best" from="63106577#0" to="1117928632#0"/>
    <trip id="truck56" type="truck_truck" depart="466.45" departLane="best" from="8648789#1" to="217801050#1"/>
    <trip id="truck57" type="truck_truck" depart="474.78" departLane="best" from="103553906#1" to="8641950#3"/>
    <trip id="truck58" type="truck_truck" depart="483.11" departLane="best" departSpeed="max" from="8646389#0" to="104210747#5"/>
    <trip id="truck59" type="truck_truck" depart="491.43" departLane="best" from="485292838#0" to="8651358#1"/>
    <trip id="truck60" type="truck_truck" depart="499.76" departLane="best" from="8649075#1" to="-8640929#3"/>
    <trip id="truck62" type="truck_truck" depart="516.42" departLane="best" from="8640929#3" to="138827717#0"/>
    <trip id="truck63" type="truck_truck" depart="524.75" departLane="best" departSpeed="max" from="8646732#0" to="8636684#5"/>
    <trip id="truck64" type="truck_truck" depart="533.08" departLane="best" from="420495586#2" to="-1196041856"/>
    <trip id="truck65" type="truck_truck" depart="541.41" departLane="best" from="-944109700#2" to="-8641950#2"/>
    <trip id="truck66" type="truck_truck" depart="549.74" departLane="best" from="380662075#2" to="8642454#1"/>
    <trip id="truck67" type="truck_truck" depart="558.07" departLane="best" from="8650337#1" to="929580949"/>
    <trip id="truck68" type="truck_truck" depart="566.40" departLane="best" departSpeed="max" from="8648527#0" to="8650688#1"/>
    <trip id="truck69" type="truck_truck" depart="574.73" departLane="best" departSpeed="max" from="-217801050#2" to="8647351#7"/>
    <trip id="truck72" type="truck_truck" depart="599.72" departLane="best" from="426456625#2" to="289462997#1"/>
    <trip id="truck73" type="truck_truck" depart="608.05" departLane="best" from="1284186043#3" to="8650619#1"/>
    <trip id="truck75" type="truck_truck" depart="624.71" departLane="best" from="8865426#2" to="1031513328"/>
    <trip id="truck76" type="truck_truck" depart="633.03" departLane="best" departSpeed="max" from="8865426#0" to="138827726#2"/>
    <trip id="truck78" type="truck_truck" depart="649.69" departLane="best" from="289468262#0" to="8640516#0"/>
    <trip id="truck79" type="truck_truck" depart="658.02" departLane="best" departSpeed="max" from="139937095" to="-825494585#5"/>
    <trip id="truck80" type="truck_truck" depart="666.35" departLane="best" departSpeed="max" from="8642149#0" to="380662072#0"/>
    <trip id="truck81" type="truck_truck" depart="674.68" departLane="best" from="1147916780" to="8650333#3"/>
    <trip id="truck83" type="truck_truck" depart="691.34" departLane="best" from="1123326681#0" to="533466403#0"/>
    <trip id="truck84" type="truck_truck" depart="699.67" departLane="best" from="380662074#1" to="217801050#1"/>
    <trip id="truck85" type="truck_truck" depart="708.00" departLane="best" from="8640929#2" to="538645519#1"/>
    <trip id="truck86" type="truck_truck" depart="716.33" departLane="best" departSpeed="max" from="8690437#0" to="8646541#0"/>
    <trip id="truck87" type="truck_truck" depart="724.66" departLane="best" from="426484913#1" to="8651358#1"/>
    <trip id="truck88" type="truck_truck" depart="732.99" departLane="best" departSpeed="max" from="-749812082#2" to="817361888"/>
    <trip id="truck90" type="truck_truck" depart="749.65" departLane="best" from="825494585#6" to="591217313#0"/>
    <trip id="truck91" type="truck_truck" depart="757.98" departLane="best" departSpeed="max" from="-8646916#1" to="8865427#0"/>
    <trip id="truck92" type="truck_truck" depart="766.31" departLane="best" from="-944109700#2" to="8650333#3"/>
    <trip id="truck93" type="truck_truck" depart="774.63" departLane="best" departSpeed="max" from="426456618#0" to="8648769"/>
    <trip id="truck94" type="truck_truck" depart="782.96" departLane="best" departSpeed="max" from="8642149#0" to="985552044#11"/>
    <trip id="truck95" type="truck_truck" depart="791.29" departLane="best" from="8638991#1" to="8865426#12"/>
    <trip id="truck98" type="truck_truck" depart="816.28" departLane="best" from="8651226#2" to="8647351#7"/>
    <trip id="truck99" type="truck_truck" depart="824.61" departLane="best" from="426484920" to="138827709#1"/>
    <trip id="truck102" type="truck_truck" depart="849.60" departLane="best" departSpeed="max" from="-749812082#2" to="199586487#2"/>
    <trip id="truck103" type="truck_truck" depart="857.93" departLane="best" from="103553906#0" to="380662069#1"/>
    <trip id="truck104" type="truck_truck" depart="866.26" departLane="best" departSpeed="max" from="-8651358#1" to="8646916#1"/>
    <trip id="truck106" type="truck_truck" depart="882.92" departLane="best" from="380662075#2" to="846628946#0"/>
    <trip id="truck107" type="truck_truck" depart="891.25" departLane="best" from="8636684#4" to="8646916#1"/>
    <trip id="truck112" type="truck_truck" depart="932.89" departLane="best" from="8647350#4" to="426472927#0"/>
    <trip id="truck113" type="truck_truck" depart="941.22" departLane="best" departSpeed="max" from="8641399#0" to="8648025#1"/>
    <trip id="truck114" type="truck_truck" depart="949.55" departLane="best" departSpeed="max" from="8641399#0" to="8643916#1"/>
    <trip id="truck115" type="truck_truck" depart="957.88" departLane="best" from="-8865420#4" to="104210747#5"/>
    <trip id="truck118" type="truck_truck" depart="982.87" departLane="best" departSpeed="max" from="-8646916#1" to="8642281#1"/>
    <trip id="truck119" type="truck_truck" depart="991.20" departLane="best" from="1126704040#1" to="8646541#0"/>
    <trip id="truck121" type="truck_truck" depart="1007.86" departLane="best" departSpeed="max" from="8646389#0" to="8638991#0"/>
    <trip id="truck122" type="truck_truck" depart="1016.19" departLane="best" from="825494585#2" to="8648025#1"/>
    <trip id="truck124" type="truck_truck" depart="1032.85" departLane="best" departSpeed="max" from="591493144#0" to="380662077#1"/>
    <trip id="truck126" type="truck_truck" depart="1049.51" departLane="best" from="103553904#1" to="8648789#4"/>
    <trip id="truck127" type="truck_truck" depart="1057.83" departLane="best" from="426456649#0" to="8642454#0"/>
    <trip id="truck128" type="truck_truck" depart="1066.16" departLane="best" from="199586485#1" to="-380662067#2"/>
    <trip id="truck129" type="truck_truck" depart="1074.49" departLane="best" departSpeed="max" from="-8649468#3" to="8648769"/>
    <trip id="truck130" type="truck_truck" depart="1082.82" departLane="best" from="138827679#0" to="8650688#1"/>
    <trip id="truck134" type="truck_truck" depart="1116.14" departLane="best" from="8644931#3" to="289462997#2"/>
    <trip id="truck135" type="truck_truck" depart="1124.47" departLane="best" departSpeed="max" from="8646732#0" to="380662072#0"/>
    <trip id="truck137" type="truck_truck" depart="1141.13" departLane="best" departSpeed="max" from="103554256#0" to="-8641560#4"/>
    <trip id="truck138" type="truck_truck" depart="1149.46" departLane="best" from="8865426#8" to="8638252#1"/>
    <trip id="truck139" type="truck_truck" depart="1157.79" departLane="best" departSpeed="max" from="-8647156#1" to="-533466403#0"/>
    <trip id="truck141" type="truck_truck" depart="1174.45" departLane="best" from="823316162#0" to="217801050#1"/>
    <trip id="truck142" type="truck_truck" depart="1182.78" departLane="best" from="8647456#3" to="-1196041856"/>
    <trip id="truck143" type="truck_truck" depart="1191.11" departLane="best" from="426456601#1" to="8650619#1"/>
    <trip id="truck146" type="truck_truck" depart="1216.09" departLane="best" from="1117928632#0" to="63104587#3"/>
    <trip id="truck148" type="truck_truck" depart="1232.75" departLane="best" departSpeed="max" from="41940341#0" to="846628946#1"/>
    <trip id="truck149" type="truck_truck" depart="1241.08" departLane="best" departSpeed="max" from="8641399#0" to="8651714#0"/>
    <trip id="truck150" type="truck_truck" depart="1249.41" departLane="best" departSpeed="max" from="104210747#1" to="-8644931#3"/>
    <trip id="truck154" type="truck_truck" depart="1282.73" departLane="best" from="426472927#1" to="8645388#1"/>
    <trip id="truck156" type="truck_truck" depart="1299.39" departLane="best" from="1317061159" to="8646916#1"/>
    <trip id="truck157" type="truck_truck" depart="1307.72" departLane="best" departSpeed="max" from="103554256#0" to="8865425#2"/>
    <trip id="truck158" type="truck_truck" depart="1316.05" departLane="best" departSpeed="max" from="426456618#0" to="289468264#2"/>
    <trip id="truck159" type="truck_truck" depart="1324.38" departLane="best" from="1160123819" to="929580949"/>
    <trip id="truck160" type="truck_truck" depart="1332.70" departLane="best" from="-749812082#1" to="537307165#1"/>
    <trip id="truck161" type="truck_truck" depart="1341.03" departLane="best" from="8647350#1" to="104210747#5"/>
    <trip id="truck163" type="truck_truck" depart="1357.69" departLane="best" from="8639350#4" to="138798811"/>
    <trip id="truck166" type="truck_truck" depart="1382.68" departLane="best" from="103553906#2" to="8649630#9"/>
    <trip id="truck168" type="truck_truck" depart="1399.34" departLane="best" from="103553906#3" to="8648635"/>
    <trip id="truck169" type="truck_truck" depart="1407.67" departLane="best" departSpeed="max" from="591493144#0" to="8649580#1"/>
    <trip id="truck171" type="truck_truck" depart="1424.33" departLane="best" from="8647350#1" to="8646962#0"/>
    <trip id="truck172" type="truck_truck" depart="1432.66" departLane="best" departSpeed="max" from="8646732#0" to="8647066#0"/>
    <trip id="truck175" type="truck_truck" depart="1457.65" departLane="best" from="8646520#1" to="533511492#1"/>
    <trip id="truck177" type="truck_truck" depart="1474.30" departLane="best" from="426472927#0" to="929580949"/>
    <trip id="truck178" type="truck_truck" depart="1482.63" departLane="best" from="138827669#2" to="8646916#1"/>
    <trip id="truck179" type="truck_truck" depart="1490.96" departLane="best" departSpeed="max" from="8641399#0" to="8650349#1"/>
    <trip id="truck181" type="truck_truck" depart="1507.62" departLane="best" from="199586485#1" to="380662068"/>
    <trip id="truck183" type="truck_truck" depart="1524.28" departLane="best" departSpeed="max" from="104210747#1" to="426456661#1"/>
    <trip id="truck184" type="truck_truck" depart="1532.61" departLane="best" departSpeed="max" from="-8642454#1" to="823316163#0"/>
    <trip id="truck185" type="truck_truck" depart="1540.94" departLane="best" from="825494585#2" to="8648635"/>
    <trip id="truck187" type="truck_truck" depart="1557.60" departLane="best" from="8640929#4" to="538645519#1"/>
    <trip id="truck188" type="truck_truck" depart="1565.93" departLane="best" from="-944109700#2" to="8650333#1"/>
    <trip id="truck189" type="truck_truck" depart="1574.26" departLane="best" from="985552043#0" to="217801050#1"/>
    <trip id="truck191" type="truck_truck" depart="1590.92" departLane="best" from="8644647#0" to="8647351#7"/>
    <trip id="truck192" type="truck_truck" depart="1599.25" departLane="best" departSpeed="max" from="485292838#0" to="8642281#1"/>
    <trip id="truck193" type="truck_truck" depart="1607.58" departLane="best" from="591217313#0" to="8651358#1"/>
    <trip id="truck194" type="truck_truck" depart="1615.90" departLane="best" departSpeed="max" from="8640929#2" to="8643791#0"/>
    <trip id="truck196" type="truck_truck" depart="1632.56" departLane="best" from="8641560#4" to="8649630#9"/>
    <trip id="truck197" type="truck_truck" depart="1640.89" departLane="best" departSpeed="max" from="104210747#1" to="8647432#1"/>
    <trip id="truck198" type="truck_truck" depart="1649.22" departLane="best" departSpeed="max" from="-8646916#1" to="8647432#1"/>
    <trip id="truck199" type="truck_truck" depart="1657.55" departLane="best" from="747090068#4" to="929580949"/>
    <trip id="truck200" type="truck_truck" depart="1665.88" departLane="best" from="-8649468#0" to="749812082#2"/>
    <trip id="truck201" type="truck_truck" depart="1674.21" departLane="best" departSpeed="max" from="8648527#0" to="8647351#7"/>
    <trip id="truck202" type="truck_truck" depart="1682.54" departLane="best" departSpeed="max" from="8865426#0" to="-8648527#0"/>
    <trip id="truck203" type="truck_truck" depart="1690.87" departLane="best" from="8865426#1" to="8650619#1"/>
    <trip id="truck204" type="truck_truck" depart="1699.20" departLane="best" from="8646520#2" to="972626709#2"/>
    <trip id="truck205" type="truck_truck" depart="1707.53" departLane="best" departSpeed="max" from="8642149#0" to="8640516#1"/>
    <trip id="truck206" type="truck_truck" depart="1715.86" departLane="best" departSpeed="max" from="-217801050#2" to="8651161#0"/>
    <trip id="truck208" type="truck_truck" depart="1732.52" departLane="best" from="8649075#1" to="8651714#3"/>
    <trip id="truck210" type="truck_truck" depart="1749.18" departLane="best" departSpeed="max" from="8642149#0" to="8647351#7"/>
    <trip id="truck212" type="truck_truck" depart="1765.83" departLane="best" departSpeed="max" from="139937095" to="63104587#3"/>
    <trip id="truck215" type="truck_truck" depart="1790.82" departLane="best" from="-8647350#4" to="8644931#2"/>
    <trip id="truck217" type="truck_truck" depart="1807.48" departLane="best" from="8641950#3" to="8644931#2"/>
    <trip id="truck218" type="truck_truck" depart="1815.81" departLane="best" from="8650349#3" to="380662072#0"/>
    <trip id="truck219" type="truck_truck" depart="1824.14" departLane="best" departSpeed="max" from="-8642454#1" to="8651358#1"/>
    <trip id="truck220" type="truck_truck" depart="1832.47" departLane="best" from="1117928632#0" to="8650619#1"/>
    <trip id="truck221" type="truck_truck" depart="1840.80" departLane="best" departSpeed="max" from="-8642454#1" to="-8647350#1"/>
    <trip id="truck222" type="truck_truck" depart="1849.13" departLane="best" from="-944116814" to="985552044#7"/>
    <trip id="truck223" type="truck_truck" depart="1857.46" departLane="best" from="8641950#1" to="-380662067#2"/>
    <trip id="truck224" type="truck_truck" depart="1865.79" departLane="best" departSpeed="max" from="8646732#0" to="823316159#1"/>
    <trip id="truck225" type="truck_truck" depart="1874.12" departLane="best" departSpeed="max" from="8865426#0" to="63106577#1"/>
    <trip id="truck226" type="truck_truck" depart="1882.45" departLane="best" departSpeed="max" from="-749812082#2" to="8642281#2"/>
    <trip id="truck228" type="truck_truck" depart="1899.10" departLane="best" departSpeed="max" from="426456618#0" to="1223509838#2"/>
    <trip id="truck233" type="truck_truck" depart="1940.75" departLane="best" from="8646506#0" to="929580949"/>
    <trip id="truck234" type="truck_truck" depart="1949.08" departLane="best" from="846628946#1" to="1117928632#0"/>
    <trip id="truck235" type="truck_truck" depart="1957.41" departLane="best" from="8641560#2" to="1188194571#1"/>
    <trip id="truck236" type="truck_truck" depart="1965.74" departLane="best" departSpeed="max" from="139937095" to="8647849#0"/>
    <trip id="truck237" type="truck_truck" depart="1974.07" departLane="best" from="8648789#2" to="8642454#1"/>
    <trip id="truck238" type="truck_truck" depart="1982.40" departLane="best" departSpeed="max" from="8641399#0" to="-380662067#2"/>
    <trip id="truck239" type="truck_truck" depart="1990.73" departLane="best" from="-985552044#8" to="1031513328"/>
    <trip id="truck241" type="truck_truck" depart="2007.39" departLane="best" departSpeed="max" from="8640929#2" to="-380662067#2"/>
    <trip id="truck242" type="truck_truck" depart="2015.72" departLane="best" departSpeed="max" from="8646732#0" to="1123326681#0"/>
    <trip id="truck243" type="truck_truck" depart="2024.05" departLane="best" departSpeed="max" from="8647456#0" to="8639327#1"/>
    <trip id="truck244" type="truck_truck" depart="2032.38" departLane="best" departSpeed="max" from="-749812082#2" to="-533466403#0"/>
    <trip id="truck245" type="truck_truck" depart="2040.70" departLane="best" from="-8644931#1" to="8642454#1"/>
    <trip id="truck247" type="truck_truck" depart="2057.36" departLane="best" from="8641950#2" to="749812082#2"/>
    <trip id="truck249" type="truck_truck" depart="2074.02" departLane="best" from="8647038#3" to="-8644647#0"/>
    <trip id="truck250" type="truck_truck" depart="2082.35" departLane="best" from="420495586#3" to="199586487#0"/>
    <trip id="truck251" type="truck_truck" depart="2090.68" departLane="best" from="-8642454#0" to="749812082#2"/>
    <trip id="truck252" type="truck_truck" depart="2099.01" departLane="best" departSpeed="max" from="-138827709#1" to="217801050#1"/>
    <trip id="truck253" type="truck_truck" depart="2107.34" departLane="best" departSpeed="max" from="-8649468#3" to="-8648527#0"/>
    <trip id="truck254" type="truck_truck" depart="2115.67" departLane="best" departSpeed="max" from="-985552044#11" to="380662072#0"/>
    <trip id="truck256" type="truck_truck" depart="2132.33" departLane="best" from="8652409#0" to="8650619#1"/>
    <trip id="truck257" type="truck_truck" depart="2140.66" departLane="best" from="846628946#0" to="8639350#4"/>
    <trip id="truck258" type="truck_truck" depart="2148.99" departLane="best" departSpeed="max" from="8646389#0" to="538645519#1"/>
    <trip id="truck259" type="truck_truck" depart="2157.32" departLane="best" from="-8639232" to="-289468264#3"/>
    <trip id="truck261" type="truck_truck" depart="2173.97" departLane="best" departSpeed="max" from="8651975#0" to="8640516#0"/>
    <trip id="truck262" type="truck_truck" depart="2182.30" departLane="best" from="8638252#2" to="823316160"/>
    <trip id="truck263" type="truck_truck" depart="2190.63" departLane="best" departSpeed="max" from="-8646916#1" to="815603050#4"/>
    <trip id="truck264" type="truck_truck" depart="2198.96" departLane="best" from="8638991#3" to="815603050#4"/>
    <trip id="truck268" type="truck_truck" depart="2232.28" departLane="best" from="-533466405" to="815603050#1"/>
    <trip id="truck269" type="truck_truck" depart="2240.61" departLane="best" from="533511492#1" to="8649630#9"/>
    <trip id="truck271" type="truck_truck" depart="2257.27" departLane="best" departSpeed="max" from="591493144#0" to="63104590#4"/>
    <trip id="truck272" type="truck_truck" depart="2265.60" departLane="best" from="929580947#1" to="8648635"/>
    <trip id="truck273" type="truck_truck" depart="2273.93" departLane="best" from="8651226#1" to="63104587#3"/>
    <trip id="truck274" type="truck_truck" depart="2282.26" departLane="best" departSpeed="max" from="-8642454#1" to="749812082#1"/>
    <trip id="truck276" type="truck_truck" depart="2298.92" departLane="best" departSpeed="max" from="-63104587#3" to="-8640929#4"/>
    <trip id="truck277" type="truck_truck" depart="2307.25" departLane="best" from="8651714#3" to="8650688#1"/>
    <trip id="truck278" type="truck_truck" depart="2315.57" departLane="best" from="-1323781936#3" to="8640516#1"/>
    <trip id="truck279" type="truck_truck" depart="2323.90" departLane="best" from="8865426#1" to="8646962#1"/>
    <trip id="truck280" type="truck_truck" depart="2332.23" departLane="best" departSpeed="max" from="8648527#0" to="8646389#3"/>
    <trip id="truck281" type="truck_truck" depart="2340.56" departLane="best" from="825494585#2" to="8648025#0"/>
    <trip id="truck282" type="truck_truck" depart="2348.89" departLane="best" departSpeed="max" from="8649527#0" to="8648025#0"/>
    <trip id="truck283" type="truck_truck" depart="2357.22" departLane="best" from="8642281#2" to="1323781936#3"/>
    <trip id="truck284" type="truck_truck" depart="2365.55" departLane="best" from="426456606#0" to="199586487#2"/>
    <trip id="truck290" type="truck_truck" depart="2415.53" departLane="best" from="8641950#1" to="199586487#2"/>
    <trip id="truck291" type="truck_truck" depart="2423.86" departLane="best" departSpeed="max" from="8649527#0" to="8646916#1"/>
    <trip id="truck292" type="truck_truck" depart="2432.19" departLane="best" departSpeed="max" from="426456618#0" to="-1196041856"/>
    <trip id="truck293" type="truck_truck" depart="2440.52" departLane="best" departSpeed="max" from="41940341#0" to="8648769"/>
    <trip id="truck294" type="truck_truck" depart="2448.85" departLane="best" from="426456618#1" to="-8644647#0"/>
    <trip id="truck296" type="truck_truck" depart="2465.50" departLane="best" from="420495586#3" to="8642454#1"/>
    <trip id="truck297" type="truck_truck" depart="2473.83" departLane="best" departSpeed="max" from="-8651358#1" to="538645519#1"/>
    <trip id="truck298" type="truck_truck" depart="2482.16" departLane="best" departSpeed="max" from="8642149#0" to="8640516#0"/>
    <trip id="truck299" type="truck_truck" depart="2490.49" departLane="best" departSpeed="max" from="8640929#2" to="972626709#4"/>
    <trip id="truck300" type="truck_truck" depart="2498.82" departLane="best" from="8647456#2" to="401265367#1"/>
    <trip id="truck303" type="truck_truck" depart="2523.81" departLane="best" from="426456618#1" to="199586487#2"/>
    <trip id="truck304" type="truck_truck" depart="2532.14" departLane="best" from="63104562#0" to="985552044#11"/>
    <trip id="truck305" type="truck_truck" depart="2540.47" departLane="best" from="8647038#2" to="103553906#2"/>
    <trip id="truck306" type="truck_truck" depart="2548.80" departLane="best" departSpeed="max" from="138863692#0" to="8648025#1"/>
    <trip id="truck307" type="truck_truck" depart="2557.13" departLane="best" from="8650349#1" to="380662072#0"/>
    <trip id="truck309" type="truck_truck" depart="2573.79" departLane="best" from="591217313#0" to="8652409#0"/>
    <trip id="truck310" type="truck_truck" depart="2582.12" departLane="best" from="63104564#1" to="8648769"/>
    <trip id="truck313" type="truck_truck" depart="2607.10" departLane="best" from="420495586#1" to="8646916#1"/>
    <trip id="truck316" type="truck_truck" depart="2632.09" departLane="best" departSpeed="max" from="138863692#0" to="8648769"/>
    <trip id="truck318" type="truck_truck" depart="2648.75" departLane="best" from="-8642454#0" to="8642281#1"/>
    <trip id="truck319" type="truck_truck" depart="2657.08" departLane="best" from="-8642454#0" to="8865426#12"/>
    <trip id="truck320" type="truck_truck" depart="2665.41" departLane="best" departSpeed="max" from="139937095" to="8647891#1"/>
    <trip id="truck325" type="truck_truck" depart="2707.06" departLane="best" from="-749812082#1" to="8651226#2"/>
    <trip id="truck329" type="truck_truck" depart="2740.37" departLane="best" from="8641950#1" to="8648635"/>
    <trip id="truck330" type="truck_truck" depart="2748.70" departLane="best" departSpeed="max" from="-217801050#2" to="8638252#2"/>
    <trip id="truck331" type="truck_truck" depart="2757.03" departLane="best" from="815603050#3" to="8642454#1"/>
    <trip id="truck333" type="truck_truck" depart="2773.69" departLane="best" from="8649075#1" to="-8636143"/>
    <trip id="truck334" type="truck_truck" depart="2782.02" departLane="best" from="8865426#3" to="8644931#2"/>
    <trip id="truck335" type="truck_truck" depart="2790.35" departLane="best" from="426456625#1" to="8650688#1"/>
    <trip id="truck336" type="truck_truck" depart="2798.68" departLane="best" from="8647456#1" to="8644931#0"/>
    <trip id="truck337" type="truck_truck" depart="2807.01" departLane="best" departSpeed="max" from="-8642454#1" to="8865420#5"/>