<?xml version="1.0" encoding="UTF-8"?>

<!-- generated on 2024-11-05 18:45:42.630940 by osmWebWizard.py v1_21_0+0000-d7b3b481c43
<configuration>
    <net-file value="C:\Windows\system32\2024-11-05-18-42-37\osm.net.xml.gz"/>
    <output-trip-file value="C:\Windows\system32\2024-11-05-18-42-37\osm.rail_urban.trips.xml"/>
    <route-file value="C:\Windows\system32\2024-11-05-18-42-37\osm.rail_urban.rou.xml"/>
    <prefix value="rail_urban"/>
    <trip-attributes value="departLane=&quot;best&quot;"/>
    <fringe-start-attributes value="departSpeed=&quot;max&quot;"/>
    <vehicle-class value="rail_urban"/>
    <fringe-factor value="5"/>
    <vclass value="rail_urban"/>
    <via-edge-types value="highway.motorway,highway.motorway_link,highway.trunk_link,highway.primary_link,highway.secondary_link,highway.tertiary_link"/>
    <min-distance value="1800.0"/>
    <min-distance.fringe value="10.0"/>
    <remove-loops value="True"/>
    <validate value="True"/>
    <insertion-density value="2.0"/>
</configuration>
-->

<!-- generated on 2024-11-05 18:45:42 by Eclipse SUMO duarouter Version 1.21.0
<duarouterConfiguration xmlns:xsi="http://www.w3.org/2001/XMLSchema-instance" xsi:noNamespaceSchemaLocation="http://sumo.dlr.de/xsd/duarouterConfiguration.xsd">

    <input>
        <net-file value="C:\Windows\system32\2024-11-05-18-42-37\osm.net.xml.gz"/>
        <route-files value="C:\Windows\system32\2024-11-05-18-42-37\osm.rail_urban.trips.xml"/>
    </input>

    <output>
        <output-file value="C:\Windows\system32\2024-11-05-18-42-37\osm.rail_urban.trips.xml.tmp"/>
        <alternatives-output value="NUL"/>
        <write-trips value="true"/>
    </output>

    <processing>
        <remove-loops value="true"/>
    </processing>

    <time>
        <begin value="0.0"/>
        <end value="3600.0"/>
    </time>

    <report>
        <no-warnings value="true"/>
        <ignore-errors value="true"/>
        <no-step-log value="true"/>
    </report>

</duarouterConfiguration>
-->

<routes xmlns:xsi="http://www.w3.org/2001/XMLSchema-instance" xsi:noNamespaceSchemaLocation="http://sumo.dlr.de/xsd/routes_file.xsd">
    <vType id="rail_urban_rail_urban" vClass="rail_urban"/>
    <trip id="rail_urban0" type="rail_urban_rail_urban" depart="0.00" departLane="best" departSpeed="max" from="9267548#0" to="59033560#2"/>
    <trip id="rail_urban1" type="rail_urban_rail_urban" depart="317.20" departLane="best" departSpeed="max" from="59033560#0" to="9267599#4"/>
    <trip id="rail_urban2" type="rail_urban_rail_urban" depart="634.40" departLane="best" departSpeed="max" from="9267548#0" to="730042433"/>
    <trip id="rail_urban3" type="rail_urban_rail_urban" depart="951.60" departLane="best" departSpeed="max" from="9267548#0" to="730042433"/>
    <trip id="rail_urban4" type="rail_urban_rail_urban" depart="1268.80" departLane="best" departSpeed="max" from="9267548#0" to="461791926"/>
    <trip id="rail_urban5" type="rail_urban_rail_urban" depart="1586.00" departLane="best" departSpeed="max" from="9267548#0" to="730042433"/>
    <trip id="rail_urban6" type="rail_urban_rail_urban" depart="1903.20" departLane="best" departSpeed="max" from="9267548#0" to="730042433"/>
    <trip id="rail_urban7" type="rail_urban_rail_urban" depart="2220.40" departLane="best" departSpeed="max" from="9267548#0" to="59033560#2"/>
    <trip id="rail_urban8" type="rail_urban_rail_urban" depart="2537.60" departLane="best" departSpeed="max" from="218004439" to="9267599#4"/>
    <trip id="rail_urban9" type="rail_urban_rail_urban" depart="2854.80" departLane="best" departSpeed="max" from="9267548#0" to="59033560#2"/>
    <trip id="rail_urban10" type="rail_urban_rail_urban" depart="3172.00" departLane="best" departSpeed="max" from="218004439" to="9267599#4"/>
    <trip id="rail_urban11" type="rail_urban_rail_urban" depart="3489.20" departLane="best" departSpeed="max" from="9267548#0" to="730042433"/>
</routes>
