<?xml version="1.0" encoding="UTF-8"?>

<!-- generated on 2024-11-05 18:43:42.886618 by osmWebWizard.py v1_21_0+0000-d7b3b481c43
<configuration>
    <net-file value="C:\Windows\system32\2024-11-05-18-42-37\osm.net.xml.gz"/>
    <output-trip-file value="C:\Windows\system32\2024-11-05-18-42-37\osm.bicycle.trips.xml"/>
    <route-file value="C:\Windows\system32\2024-11-05-18-42-37\osm.bicycle.rou.xml"/>
    <prefix value="bike"/>
    <trip-attributes value="departLane=&quot;best&quot;"/>
    <fringe-start-attributes value="departSpeed=&quot;max&quot;"/>
    <vehicle-class value="bicycle"/>
    <fringe-factor value="2"/>
    <vclass value="bicycle"/>
    <via-edge-types value="highway.motorway,highway.motorway_link,highway.trunk_link,highway.primary_link,highway.secondary_link,highway.tertiary_link"/>
    <max-distance value="8000.0"/>
    <remove-loops value="True"/>
    <validate value="True"/>
    <insertion-density value="35.0"/>
</configuration>
-->

<!-- generated on 2024-11-05 18:43:39 by Eclipse SUMO duarouter Version 1.21.0
<duarouterConfiguration xmlns:xsi="http://www.w3.org/2001/XMLSchema-instance" xsi:noNamespaceSchemaLocation="http://sumo.dlr.de/xsd/duarouterConfiguration.xsd">

    <input>
        <net-file value="C:\Windows\system32\2024-11-05-18-42-37\osm.net.xml.gz"/>
        <route-files value="C:\Windows\system32\2024-11-05-18-42-37\osm.bicycle.trips.xml"/>
    </input>

    <output>
        <output-file value="C:\Windows\system32\2024-11-05-18-42-37\osm.bicycle.trips.xml.tmp"/>
        <alternatives-output value="NUL"/>
        <write-trips value="true"/>
    </output>

    <processing>
        <remove-loops value="true"/>
    </processing>

    <time>
        <begin value="0.0"/>
        <end value="3600.0"/>
    </time>

    <report>
        <no-warnings value="true"/>
        <ignore-errors value="true"/>
        <no-step-log value="true"/>
    </report>

</duarouterConfiguration>
-->

<routes xmlns:xsi="http://www.w3.org/2001/XMLSchema-instance" xsi:noNamespaceSchemaLocation="http://sumo.dlr.de/xsd/routes_file.xsd">
    <vType id="bike_bicycle" vClass="bicycle"/>
    <trip id="bike0" type="bike_bicycle" depart="0.00" departLane="best" from="657714931#0" to="1115616612"/>
    <trip id="bike1" type="bike_bicycle" depart="0.80" departLane="best" departSpeed="max" from="-8646916#1" to="834250220#5"/>
    <trip id="bike2" type="bike_bicycle" depart="1.60" departLane="best" from="-830619409#0" to="816366950#1"/>
    <trip id="bike3" type="bike_bicycle" depart="2.40" departLane="best" from="242652627#0" to="-292809511#3"/>
    <trip id="bike4" type="bike_bicycle" depart="3.21" departLane="best" from="1281809753#5" to="-1115824694#3"/>
    <trip id="bike6" type="bike_bicycle" depart="4.81" departLane="best" departSpeed="max" from="-1115616595#1" to="-828301024#6"/>
    <trip id="bike7" type="bike_bicycle" depart="5.61" departLane="best" departSpeed="max" from="690112754#0" to="426487624#1"/>
    <trip id="bike8" type="bike_bicycle" depart="6.41" departLane="best" from="750567540" to="55677196#5"/>
    <trip id="bike9" type="bike_bicycle" depart="7.21" departLane="best" from="8641166#5" to="104210747#8"/>
    <trip id="bike10" type="bike_bicycle" depart="8.02" departLane="best" from="-8640819#1" to="825263837#0"/>
    <trip id="bike11" type="bike_bicycle" depart="8.82" departLane="best" from="-1030057026" to="798341511#0"/>
    <trip id="bike12" type="bike_bicycle" depart="9.62" departLane="best" from="-8652430#0" to="1086987629#3"/>
    <trip id="bike14" type="bike_bicycle" depart="11.22" departLane="best" from="8646564#2" to="591217296#1"/>
    <trip id="bike15" type="bike_bicycle" depart="12.02" departLane="best" from="-426497570#2" to="832081442#0"/>
    <trip id="bike16" type="bike_bicycle" depart="12.83" departLane="best" from="383016839#0" to="-89641249#0"/>
    <trip id="bike17" type="bike_bicycle" depart="13.63" departLane="best" from="1115616620#1" to="426489343#1"/>
    <trip id="bike18" type="bike_bicycle" depart="14.43" departLane="best" from="8645086#2" to="63104564#2"/>
    <trip id="bike19" type="bike_bicycle" depart="15.23" departLane="best" from="8647351#10" to="-48983695#2"/>
    <trip id="bike20" type="bike_bicycle" depart="16.03" departLane="best" departSpeed="max" from="823316168#0" to="-1279167686#0"/>
    <trip id="bike21" type="bike_bicycle" depart="16.83" departLane="best" from="-834250227#1" to="-8651055#0"/>
    <trip id="bike23" type="bike_bicycle" depart="18.44" departLane="best" from="292809744#1" to="-8648583#0"/>
    <trip id="bike24" type="bike_bicycle" depart="19.24" departLane="best" from="-635014985#0" to="1115616600"/>
    <trip id="bike25" type="bike_bicycle" depart="20.04" departLane="best" departSpeed="max" from="1115616585#0" to="-830619438#3"/>
    <trip id="bike26" type="bike_bicycle" depart="20.84" departLane="best" from="-8645216#4" to="8651325#3"/>
    <trip id="bike27" type="bike_bicycle" depart="21.64" departLane="best" departSpeed="max" from="689794967#0" to="591235979#1"/>
    <trip id="bike28" type="bike_bicycle" depart="22.44" departLane="best" from="814346831#1" to="830619438#4"/>
    <trip id="bike29" type="bike_bicycle" depart="23.25" departLane="best" from="-798341511#1" to="1133901649#0"/>
    <trip id="bike30" type="bike_bicycle" depart="24.05" departLane="best" from="94482778" to="-1293720483"/>
    <trip id="bike32" type="bike_bicycle" depart="25.65" departLane="best" from="-8646460#4" to="8638421#1"/>
    <trip id="bike33" type="bike_bicycle" depart="26.45" departLane="best" from="-834250227#5" to="-1120503844"/>
    <trip id="bike34" type="bike_bicycle" depart="27.25" departLane="best" departSpeed="max" from="-894910924#1" to="-8646653#1"/>
    <trip id="bike36" type="bike_bicycle" depart="28.86" departLane="best" from="8647863#1" to="-94482765#1"/>
    <trip id="bike38" type="bike_bicycle" depart="30.46" departLane="best" from="8649630#5" to="1281809772"/>
    <trip id="bike39" type="bike_bicycle" depart="31.26" departLane="best" from="-8645086#1" to="8639923#1"/>
    <trip id="bike40" type="bike_bicycle" depart="32.06" departLane="best" from="426489269#1" to="8646223#2"/>
    <trip id="bike42" type="bike_bicycle" depart="33.67" departLane="best" departSpeed="max" from="1177983702" to="-834242969#1"/>
    <trip id="bike47" type="bike_bicycle" depart="37.67" departLane="best" from="-1312615598#0" to="1149179317#1"/>
    <trip id="bike48" type="bike_bicycle" depart="38.48" departLane="best" from="985552043#0" to="404948105#6"/>
    <trip id="bike49" type="bike_bicycle" depart="39.28" departLane="best" from="8866326#2" to="8647380#3"/>
    <trip id="bike50" type="bike_bicycle" depart="40.08" departLane="best" from="-1089085521#1" to="-828301025"/>
    <trip id="bike51" type="bike_bicycle" depart="40.88" departLane="best" from="815970303#1" to="426456601#1"/>
    <trip id="bike52" type="bike_bicycle" depart="41.68" departLane="best" from="8645216#3" to="733225891#1"/>
    <trip id="bike53" type="bike_bicycle" depart="42.48" departLane="best" from="32800382#2" to="138827709"/>
    <trip id="bike54" type="bike_bicycle" depart="43.28" departLane="best" from="163516970#0" to="8652246#0"/>
    <trip id="bike55" type="bike_bicycle" depart="44.09" departLane="best" from="8647849#0" to="8646223#4"/>
    <trip id="bike56" type="bike_bicycle" depart="44.89" departLane="best" from="-292807008#4" to="818613788#0"/>
    <trip id="bike57" type="bike_bicycle" depart="45.69" departLane="best" departSpeed="max" from="8649527#0" to="8647783#1"/>
    <trip id="bike58" type="bike_bicycle" depart="46.49" departLane="best" from="-8650993#1" to="719614505#1"/>
    <trip id="bike59" type="bike_bicycle" depart="47.29" departLane="best" from="579272019#3" to="-750361520#0"/>
    <trip id="bike60" type="bike_bicycle" depart="48.09" departLane="best" from="856119100#2" to="426456630#1"/>
    <trip id="bike61" type="bike_bicycle" depart="48.90" departLane="best" departSpeed="max" from="8637744#0" to="405683629#1"/>
    <trip id="bike62" type="bike_bicycle" depart="49.70" departLane="best" from="-1024772957#0" to="48982055#0"/>
    <trip id="bike63" type="bike_bicycle" depart="50.50" departLane="best" from="-1112835160#6" to="8650993#2"/>
    <trip id="bike64" type="bike_bicycle" depart="51.30" departLane="best" from="8647875#0" to="8646359#4"/>
    <trip id="bike66" type="bike_bicycle" depart="52.90" departLane="best" from="8647872#1" to="8651837#2"/>
    <trip id="bike67" type="bike_bicycle" depart="53.70" departLane="best" from="-201760508#1" to="289462374#1"/>
    <trip id="bike68" type="bike_bicycle" depart="54.51" departLane="best" from="-1329768968#1" to="8636684#1"/>
    <trip id="bike69" type="bike_bicycle" depart="55.31" departLane="best" from="85891007#0" to="-55677197#1"/>
    <trip id="bike70" type="bike_bicycle" depart="56.11" departLane="best" from="242536052#6" to="426488940#4"/>
    <trip id="bike71" type="bike_bicycle" depart="56.91" departLane="best" from="8645086#2" to="8647863#4"/>
    <trip id="bike72" type="bike_bicycle" depart="57.71" departLane="best" from="1281809753#9" to="-832387226"/>
    <trip id="bike73" type="bike_bicycle" depart="58.51" departLane="best" from="404955581#1" to="832081442#1"/>
    <trip id="bike74" type="bike_bicycle" depart="59.32" departLane="best" from="-828301024#0" to="944109700#2"/>
    <trip id="bike75" type="bike_bicycle" depart="60.12" departLane="best" from="-970425331" to="-833580414"/>
    <trip id="bike76" type="bike_bicycle" depart="60.92" departLane="best" from="-1329768963" to="380662069#1"/>
    <trip id="bike77" type="bike_bicycle" depart="61.72" departLane="best" from="-426489345#0" to="834250227#0"/>
    <trip id="bike78" type="bike_bicycle" depart="62.52" departLane="best" from="1024772957#0" to="55677196#2"/>
    <trip id="bike79" type="bike_bicycle" depart="63.32" departLane="best" from="-834362476" to="-834242970#1"/>
    <trip id="bike80" type="bike_bicycle" depart="64.13" departLane="best" from="-140065785#1" to="-660628033#8"/>
    <trip id="bike81" type="bike_bicycle" depart="64.93" departLane="best" from="-834250227#5" to="8649414#1"/>
    <trip id="bike82" type="bike_bicycle" depart="65.73" departLane="best" from="8647158#2" to="201760508#1"/>
    <trip id="bike83" type="bike_bicycle" depart="66.53" departLane="best" departSpeed="max" from="-85891014#2" to="815093895#2"/>
    <trip id="bike84" type="bike_bicycle" depart="67.33" departLane="best" from="830619438#3" to="-566657861#0"/>
    <trip id="bike85" type="bike_bicycle" depart="68.13" departLane="best" from="8651161#0" to="485292836#1"/>
    <trip id="bike86" type="bike_bicycle" depart="68.93" departLane="best" from="242536052#1" to="8639923#2"/>
    <trip id="bike87" type="bike_bicycle" depart="69.74" departLane="best" from="8641115#2" to="-825494585#7"/>
    <trip id="bike88" type="bike_bicycle" depart="70.54" departLane="best" from="-289456617#0" to="1329768964"/>
    <trip id="bike89" type="bike_bicycle" depart="71.34" departLane="best" from="-85890998#1" to="241180702#6"/>
    <trip id="bike90" type="bike_bicycle" depart="72.14" departLane="best" from="828301025" to="815957499#1"/>
    <trip id="bike92" type="bike_bicycle" depart="73.74" departLane="best" from="1188182970#0" to="1087035552#1"/>
    <trip id="bike93" type="bike_bicycle" depart="74.55" departLane="best" from="8647351#10" to="8640571#1"/>
    <trip id="bike94" type="bike_bicycle" depart="75.35" departLane="best" from="-823316169" to="165358925#1"/>
    <trip id="bike95" type="bike_bicycle" depart="76.15" departLane="best" from="1281809753#5" to="-8648583#1"/>
    <trip id="bike96" type="bike_bicycle" depart="76.95" departLane="best" departSpeed="max" from="-8639568#1" to="8650435#1"/>
    <trip id="bike97" type="bike_bicycle" depart="77.75" departLane="best" from="138827726#2" to="8647380#4"/>
    <trip id="bike98" type="bike_bicycle" depart="78.55" departLane="best" from="426456630#1" to="-1306276679"/>
    <trip id="bike99" type="bike_bicycle" depart="79.35" departLane="best" from="993825359#2" to="8646506#1"/>
    <trip id="bike100" type="bike_bicycle" depart="80.16" departLane="best" from="8865427#5" to="8650602#7"/>
    <trip id="bike101" type="bike_bicycle" depart="80.96" departLane="best" from="8646607#1" to="-815106095#0"/>
    <trip id="bike102" type="bike_bicycle" depart="81.76" departLane="best" from="255667897#1" to="-832677763#0"/>
    <trip id="bike103" type="bike_bicycle" depart="82.56" departLane="best" from="1185620974#1" to="-140093533#0"/>
    <trip id="bike104" type="bike_bicycle" depart="83.36" departLane="best" from="1115616621" to="944495317#0"/>
    <trip id="bike105" type="bike_bicycle" depart="84.16" departLane="best" from="-8645086#2" to="8639923#1"/>
    <trip id="bike107" type="bike_bicycle" depart="85.77" departLane="best" from="-1281777218#0" to="970425331"/>
    <trip id="bike108" type="bike_bicycle" depart="86.57" departLane="best" from="426487627#1" to="828301024#3"/>
    <trip id="bike109" type="bike_bicycle" depart="87.37" departLane="best" from="-689704488" to="-8652508#0"/>
    <trip id="bike110" type="bike_bicycle" depart="88.17" departLane="best" from="8865427#5" to="51811528#0"/>
    <trip id="bike112" type="bike_bicycle" depart="89.78" departLane="best" from="-1285819769#1" to="538554380#1"/>
    <trip id="bike113" type="bike_bicycle" depart="90.58" departLane="best" departSpeed="max" from="292809744#0" to="8647066#1"/>
    <trip id="bike114" type="bike_bicycle" depart="91.38" departLane="best" from="-733225891#0" to="879039476#0"/>
    <trip id="bike115" type="bike_bicycle" depart="92.18" departLane="best" from="-165358924" to="-823476932"/>
    <trip id="bike116" type="bike_bicycle" depart="92.98" departLane="best" departSpeed="max" from="538554381#0" to="816316536#0"/>
    <trip id="bike118" type="bike_bicycle" depart="94.58" departLane="best" from="8648507#2" to="8639801#0"/>
    <trip id="bike119" type="bike_bicycle" depart="95.39" departLane="best" departSpeed="max" from="538554381#0" to="-63104587#2"/>
    <trip id="bike120" type="bike_bicycle" depart="96.19" departLane="best" from="1281809749#1" to="537303956#1"/>
    <trip id="bike121" type="bike_bicycle" depart="96.99" departLane="best" from="32800382#4" to="8651212#0"/>
    <trip id="bike122" type="bike_bicycle" depart="97.79" departLane="best" from="-828301024#18" to="-828301024#15"/>
    <trip id="bike124" type="bike_bicycle" depart="99.39" departLane="best" departSpeed="max" from="814346830#0" to="8866322#1"/>
    <trip id="bike125" type="bike_bicycle" depart="100.20" departLane="best" from="89641249#0" to="856200767#0"/>
    <trip id="bike127" type="bike_bicycle" depart="101.80" departLane="best" from="-990899889#1" to="533600032#1"/>
    <trip id="bike128" type="bike_bicycle" depart="102.60" departLane="best" from="-140093533#2" to="-832677763#0"/>
    <trip id="bike129" type="bike_bicycle" depart="103.40" departLane="best" from="-8645086#2" to="8651156#1"/>
    <trip id="bike131" type="bike_bicycle" depart="105.01" departLane="best" departSpeed="max" from="1115273723#0" to="-806281874#2"/>
    <trip id="bike132" type="bike_bicycle" depart="105.81" departLane="best" from="8646020#0" to="-825494585#2"/>
    <trip id="bike134" type="bike_bicycle" depart="107.41" departLane="best" from="747090063#0" to="1087035552#1"/>
    <trip id="bike135" type="bike_bicycle" depart="108.21" departLane="best" from="8642027" to="8865420#4"/>
    <trip id="bike136" type="bike_bicycle" depart="109.01" departLane="best" from="798341511#0" to="8651358#1"/>
    <trip id="bike139" type="bike_bicycle" depart="111.42" departLane="best" from="-8646460#4" to="591217298#1"/>
    <trip id="bike140" type="bike_bicycle" depart="112.22" departLane="best" from="825626923" to="-830135732#0"/>
    <trip id="bike141" type="bike_bicycle" depart="113.02" departLane="best" from="635009720#1" to="8646223#6"/>
    <trip id="bike142" type="bike_bicycle" depart="113.82" departLane="best" from="289424188#6" to="8649414#1"/>
    <trip id="bike143" type="bike_bicycle" depart="114.62" departLane="best" from="8646541#1" to="-293243028#0"/>
    <trip id="bike144" type="bike_bicycle" depart="115.43" departLane="best" from="-85890998#1" to="-8648268#0"/>
    <trip id="bike145" type="bike_bicycle" depart="116.23" departLane="best" from="-103553906#1" to="8638252#5"/>
    <trip id="bike146" type="bike_bicycle" depart="117.03" departLane="best" from="635021959#2" to="-8646020#0"/>
    <trip id="bike147" type="bike_bicycle" depart="117.83" departLane="best" from="-832081442#0" to="426489343#0"/>
    <trip id="bike148" type="bike_bicycle" depart="118.63" departLane="best" from="1285819769#1" to="1087041478"/>
    <trip id="bike149" type="bike_bicycle" depart="119.43" departLane="best" departSpeed="max" from="-150052469#14" to="8648229#2"/>
    <trip id="bike150" type="bike_bicycle" depart="120.23" departLane="best" from="-8649011#0" to="426487627#0"/>
    <trip id="bike151" type="bike_bicycle" depart="121.04" departLane="best" from="8646035#5" to="-537303955#1"/>
    <trip id="bike152" type="bike_bicycle" depart="121.84" departLane="best" from="-635014985#1" to="55677196#2"/>
    <trip id="bike153" type="bike_bicycle" depart="122.64" departLane="best" from="-8652002#0" to="8649021#1"/>
    <trip id="bike154" type="bike_bicycle" depart="123.44" departLane="best" from="8639962#3" to="8647380#2"/>
    <trip id="bike155" type="bike_bicycle" depart="124.24" departLane="best" from="8648739#2" to="-832081424#0"/>
    <trip id="bike156" type="bike_bicycle" depart="125.04" departLane="best" departSpeed="max" from="-8639568#1" to="-32800382#2"/>
    <trip id="bike157" type="bike_bicycle" depart="125.85" departLane="best" from="8638014#2" to="8648326#0"/>
    <trip id="bike158" type="bike_bicycle" depart="126.65" departLane="best" from="-426497572#1" to="63104590#4"/>
    <trip id="bike159" type="bike_bicycle" depart="127.45" departLane="best" from="-689216563" to="8650993#4"/>
    <trip id="bike160" type="bike_bicycle" depart="128.25" departLane="best" from="8647356#3" to="-89691955#1"/>
    <trip id="bike161" type="bike_bicycle" depart="129.05" departLane="best" from="8641175#1" to="8648179#2"/>
    <trip id="bike162" type="bike_bicycle" depart="129.85" departLane="best" from="-1115616587" to="-834242970#1"/>
    <trip id="bike163" type="bike_bicycle" depart="130.66" departLane="best" from="-990899889#3" to="8651029"/>
    <trip id="bike164" type="bike_bicycle" depart="131.46" departLane="best" from="8640532#0" to="8647456#15"/>
    <trip id="bike165" type="bike_bicycle" depart="132.26" departLane="best" from="8641175#1" to="8646506#1"/>
    <trip id="bike166" type="bike_bicycle" depart="133.06" departLane="best" from="-8638395#1" to="-383937741"/>
    <trip id="bike167" type="bike_bicycle" depart="133.86" departLane="best" from="8647491#1" to="8647351#7"/>
    <trip id="bike168" type="bike_bicycle" depart="134.66" departLane="best" from="834242969#1" to="8644931"/>
    <trip id="bike169" type="bike_bicycle" depart="135.46" departLane="best" from="172093621#3" to="89691955#2"/>
    <trip id="bike170" type="bike_bicycle" depart="136.27" departLane="best" from="8639962#1" to="-834362476"/>
    <trip id="bike172" type="bike_bicycle" depart="137.87" departLane="best" from="94482778" to="8643916#1"/>
    <trip id="bike173" type="bike_bicycle" depart="138.67" departLane="best" from="8865426#4" to="-8648724#0"/>
    <trip id="bike174" type="bike_bicycle" depart="139.47" departLane="best" departSpeed="max" from="660628033#0" to="1271912923"/>
    <trip id="bike175" type="bike_bicycle" depart="140.27" departLane="best" departSpeed="max" from="941762003#0" to="426456594#2"/>
    <trip id="bike176" type="bike_bicycle" depart="141.08" departLane="best" from="8651325#3" to="-426497569#1"/>
    <trip id="bike177" type="bike_bicycle" depart="141.88" departLane="best" from="8866323#0" to="818613788#0"/>
    <trip id="bike178" type="bike_bicycle" depart="142.68" departLane="best" from="-8865420#2" to="-8646460#3"/>
    <trip id="bike180" type="bike_bicycle" depart="144.28" departLane="best" from="828301024#8" to="-94482761#0"/>
    <trip id="bike182" type="bike_bicycle" depart="145.88" departLane="best" from="-1120509015#0" to="48982055#0"/>
    <trip id="bike183" type="bike_bicycle" depart="146.69" departLane="best" from="-8640813#1" to="825994983"/>
    <trip id="bike184" type="bike_bicycle" depart="147.49" departLane="best" departSpeed="max" from="-1030057021" to="8650602#11"/>
    <trip id="bike186" type="bike_bicycle" depart="149.09" departLane="best" departSpeed="max" from="832677763#0" to="-815488390#1"/>
    <trip id="bike187" type="bike_bicycle" depart="149.89" departLane="best" from="1106843295#1" to="172451155#0"/>
    <trip id="bike188" type="bike_bicycle" depart="150.69" departLane="best" from="-798341511#2" to="747090067#0"/>
    <trip id="bike189" type="bike_bicycle" depart="151.50" departLane="best" from="-894910923#0" to="8646916#1"/>
    <trip id="bike190" type="bike_bicycle" depart="152.30" departLane="best" from="825998783#2" to="8866322#1"/>
    <trip id="bike192" type="bike_bicycle" depart="153.90" departLane="best" from="1188182970#0" to="8652096#0"/>
    <trip id="bike193" type="bike_bicycle" depart="154.70" departLane="best" from="-427635744#1" to="1303174798#1"/>
    <trip id="bike194" type="bike_bicycle" depart="155.50" departLane="best" from="8651355#2" to="816366950#3"/>
    <trip id="bike195" type="bike_bicycle" depart="156.31" departLane="best" from="8648797#2" to="604252821#2"/>
    <trip id="bike196" type="bike_bicycle" depart="157.11" departLane="best" departSpeed="max" from="-8651156#2" to="426488104#1"/>
    <trip id="bike197" type="bike_bicycle" depart="157.91" departLane="best" from="-1024772957#0" to="-8650093#1"/>
    <trip id="bike198" type="bike_bicycle" depart="158.71" departLane="best" from="-1302402604#2" to="518404087#1"/>
    <trip id="bike200" type="bike_bicycle" depart="160.31" departLane="best" from="138827717#0" to="-832677763#0"/>
    <trip id="bike201" type="bike_bicycle" depart="161.11" departLane="best" from="242536052#10" to="289462373#1"/>
    <trip id="bike202" type="bike_bicycle" depart="161.92" departLane="best" from="8639962#3" to="-815970303#0"/>
    <trip id="bike203" type="bike_bicycle" depart="162.72" departLane="best" from="-172451155#1" to="36835949#2"/>
    <trip id="bike204" type="bike_bicycle" depart="163.52" departLane="best" departSpeed="max" from="635006734" to="1042974152"/>
    <trip id="bike205" type="bike_bicycle" depart="164.32" departLane="best" from="-8642454#1" to="856119100#1"/>
    <trip id="bike206" type="bike_bicycle" depart="165.12" departLane="best" from="814346831#0" to="834250225"/>
    <trip id="bike207" type="bike_bicycle" depart="165.92" departLane="best" departSpeed="max" from="-825994983" to="1115616610#0"/>
    <trip id="bike208" type="bike_bicycle" depart="166.73" departLane="best" from="-8637728#1" to="242631723#1"/>
    <trip id="bike210" type="bike_bicycle" depart="168.33" departLane="best" from="1281777361#0" to="660628033#2"/>
    <trip id="bike211" type="bike_bicycle" depart="169.13" departLane="best" from="-825494585#2" to="825263830#2"/>
    <trip id="bike212" type="bike_bicycle" depart="169.93" departLane="best" from="289462997#5" to="-8638120#0"/>
    <trip id="bike213" type="bike_bicycle" depart="170.73" departLane="best" from="747090065" to="104210747#1"/>
    <trip id="bike214" type="bike_bicycle" depart="171.54" departLane="best" from="-834250220#13" to="8638252#2"/>
    <trip id="bike216" type="bike_bicycle" depart="173.14" departLane="best" from="8640064#2" to="8652451#1"/>
    <trip id="bike218" type="bike_bicycle" depart="174.74" departLane="best" departSpeed="max" from="-8639568#1" to="8646962#0"/>
    <trip id="bike219" type="bike_bicycle" depart="175.54" departLane="best" from="170658072#0" to="8641399#1"/>
    <trip id="bike220" type="bike_bicycle" depart="176.34" departLane="best" from="806281875#4" to="94482765#0"/>
    <trip id="bike221" type="bike_bicycle" depart="177.15" departLane="best" from="538554381#2" to="8652089#0"/>
    <trip id="bike222" type="bike_bicycle" depart="177.95" departLane="best" departSpeed="max" from="8648527#0" to="591677205"/>
    <trip id="bike224" type="bike_bicycle" depart="179.55" departLane="best" from="8645216#2" to="426488104#1"/>
    <trip id="bike225" type="bike_bicycle" depart="180.35" departLane="best" from="8648724#1" to="834362476"/>
    <trip id="bike226" type="bike_bicycle" depart="181.15" departLane="best" from="242536052#4" to="8639568#1"/>
    <trip id="bike227" type="bike_bicycle" depart="181.96" departLane="best" from="8638403#1" to="690112763#1"/>
    <trip id="bike228" type="bike_bicycle" depart="182.76" departLane="best" from="85891007#0" to="380662075#2"/>
    <trip id="bike229" type="bike_bicycle" depart="183.56" departLane="best" departSpeed="max" from="604589836#0" to="8648179#2"/>
    <trip id="bike230" type="bike_bicycle" depart="184.36" departLane="best" from="-150052469#5" to="8649840#3"/>
    <trip id="bike231" type="bike_bicycle" depart="185.16" departLane="best" from="-8646460#1" to="990899889#1"/>
    <trip id="bike232" type="bike_bicycle" depart="185.96" departLane="best" departSpeed="max" from="404955582#0" to="-63104587#4"/>
    <trip id="bike233" type="bike_bicycle" depart="186.76" departLane="best" from="-844528872#0" to="825263820#1"/>
    <trip id="bike234" type="bike_bicycle" depart="187.57" departLane="best" departSpeed="max" from="825263821#0" to="150052469#9"/>
    <trip id="bike235" type="bike_bicycle" depart="188.37" departLane="best" departSpeed="max" from="1223509838#0" to="426472927#0"/>
    <trip id="bike236" type="bike_bicycle" depart="189.17" departLane="best" from="426659560#0" to="-830619437#1"/>
    <trip id="bike237" type="bike_bicycle" depart="189.97" departLane="best" from="1281809753#1" to="8649414#1"/>
    <trip id="bike238" type="bike_bicycle" depart="190.77" departLane="best" from="485292839#1" to="825263830#0"/>
    <trip id="bike239" type="bike_bicycle" depart="191.57" departLane="best" from="8647066#0" to="-8637728#1"/>
    <trip id="bike240" type="bike_bicycle" depart="192.38" departLane="best" from="1115824694#0" to="-104210747#2"/>
    <trip id="bike241" type="bike_bicycle" depart="193.18" departLane="best" from="-1087035552#0" to="85890979"/>
    <trip id="bike242" type="bike_bicycle" depart="193.98" departLane="best" from="8646962#1" to="242544492#2"/>
    <trip id="bike244" type="bike_bicycle" depart="195.58" departLane="best" from="426456589" to="-591136310#3"/>
    <trip id="bike245" type="bike_bicycle" depart="196.38" departLane="best" from="750567540" to="-834242970#0"/>
    <trip id="bike246" type="bike_bicycle" depart="197.19" departLane="best" from="1323824615#1" to="-1115824694#1"/>
    <trip id="bike247" type="bike_bicycle" depart="197.99" departLane="best" from="1013953519#2" to="817407010"/>
    <trip id="bike248" type="bike_bicycle" depart="198.79" departLane="best" from="1195901265#0" to="815093895#0"/>
    <trip id="bike250" type="bike_bicycle" depart="200.39" departLane="best" from="591677195#0" to="-1115616620#1"/>
    <trip id="bike251" type="bike_bicycle" depart="201.19" departLane="best" from="1152962274#1" to="426870767#0"/>
    <trip id="bike252" type="bike_bicycle" depart="201.99" departLane="best" departSpeed="max" from="-1115616595#1" to="747090063#0"/>
    <trip id="bike253" type="bike_bicycle" depart="202.80" departLane="best" from="-55677196#2" to="203015270#0"/>
    <trip id="bike254" type="bike_bicycle" depart="203.60" departLane="best" departSpeed="max" from="-1229045525#1" to="1126768951#1"/>
    <trip id="bike255" type="bike_bicycle" depart="204.40" departLane="best" from="830135732#1" to="1030057025"/>
    <trip id="bike256" type="bike_bicycle" depart="205.20" departLane="best" departSpeed="max" from="85310729#0" to="1126768951#1"/>
    <trip id="bike257" type="bike_bicycle" depart="206.00" departLane="best" from="-834250220#5" to="8646389#1"/>
    <trip id="bike258" type="bike_bicycle" depart="206.80" departLane="best" from="-8640516#0" to="-289424188#7"/>
    <trip id="bike259" type="bike_bicycle" depart="207.61" departLane="best" from="-1112835160#6" to="426456630#1"/>
    <trip id="bike260" type="bike_bicycle" depart="208.41" departLane="best" from="993825360#1" to="1098934123#1"/>
    <trip id="bike261" type="bike_bicycle" depart="209.21" departLane="best" from="690112754#1" to="8639478#3"/>
    <trip id="bike263" type="bike_bicycle" depart="210.81" departLane="best" from="8651870#2" to="-828301024#7"/>
    <trip id="bike264" type="bike_bicycle" depart="211.61" departLane="best" from="-1112835160#8" to="733225891#0"/>
    <trip id="bike265" type="bike_bicycle" depart="212.41" departLane="best" departSpeed="max" from="-426497580#1" to="815093895#2"/>
    <trip id="bike266" type="bike_bicycle" depart="213.22" departLane="best" from="426489347#0" to="-834242958#1"/>
    <trip id="bike267" type="bike_bicycle" depart="214.02" departLane="best" from="822903047#1" to="8637970#0"/>
    <trip id="bike268" type="bike_bicycle" depart="214.82" departLane="best" from="810132948#1" to="-591235970#0"/>
    <trip id="bike269" type="bike_bicycle" depart="215.62" departLane="best" from="834242969#1" to="-426492389#1"/>
    <trip id="bike270" type="bike_bicycle" depart="216.42" departLane="best" from="-8642489#1" to="8865426#10"/>
    <trip id="bike272" type="bike_bicycle" depart="218.03" departLane="best" from="-8865420#4" to="816366950#3"/>
    <trip id="bike273" type="bike_bicycle" depart="218.83" departLane="best" departSpeed="max" from="8652508#0" to="1229045524#1"/>
    <trip id="bike274" type="bike_bicycle" depart="219.63" departLane="best" from="825494585#11" to="242544492#0"/>
    <trip id="bike275" type="bike_bicycle" depart="220.43" departLane="best" from="818143469" to="654038108#2"/>