<?xml version="1.0" encoding="UTF-8"?>

<!-- generated on 2024-11-05 18:43:56.784026 by osmWebWizard.py v1_21_0+0000-d7b3b481c43
<configuration>
    <net-file value="C:\Windows\system32\2024-11-05-18-42-37\osm.net.xml.gz"/>
    <output-trip-file value="C:\Windows\system32\2024-11-05-18-42-37\osm.motorcycle.trips.xml"/>
    <route-file value="C:\Windows\system32\2024-11-05-18-42-37\osm.motorcycle.rou.xml"/>
    <prefix value="motorcycle"/>
    <trip-attributes value="departLane=&quot;best&quot;"/>
    <fringe-start-attributes value="departSpeed=&quot;max&quot;"/>
    <vehicle-class value="motorcycle"/>
    <fringe-factor value="4"/>
    <vclass value="motorcycle"/>
    <via-edge-types value="highway.motorway,highway.motorway_link,highway.trunk_link,highway.primary_link,highway.secondary_link,highway.tertiary_link"/>
    <max-distance value="1200.0"/>
    <remove-loops value="True"/>
    <validate value="True"/>
    <insertion-density value="25.0"/>
</configuration>
-->

<!-- generated on 2024-11-05 18:43:55 by Eclipse SUMO duarouter Version 1.21.0
<duarouterConfiguration xmlns:xsi="http://www.w3.org/2001/XMLSchema-instance" xsi:noNamespaceSchemaLocation="http://sumo.dlr.de/xsd/duarouterConfiguration.xsd">

    <input>
        <net-file value="C:\Windows\system32\2024-11-05-18-42-37\osm.net.xml.gz"/>
        <route-files value="C:\Windows\system32\2024-11-05-18-42-37\osm.motorcycle.trips.xml"/>
    </input>

    <output>
        <output-file value="C:\Windows\system32\2024-11-05-18-42-37\osm.motorcycle.trips.xml.tmp"/>
        <alternatives-output value="NUL"/>
        <write-trips value="true"/>
    </output>

    <processing>
        <remove-loops value="true"/>
    </processing>

    <time>
        <begin value="0.0"/>
        <end value="3600.0"/>
    </time>

    <report>
        <no-warnings value="true"/>
        <ignore-errors value="true"/>
        <no-step-log value="true"/>
    </report>

</duarouterConfiguration>
-->

<routes xmlns:xsi="http://www.w3.org/2001/XMLSchema-instance" xsi:noNamespaceSchemaLocation="http://sumo.dlr.de/xsd/routes_file.xsd">
    <vType id="motorcycle_motorcycle" vClass="motorcycle"/>
    <trip id="motorcycle0" type="motorcycle_motorcycle" depart="0.00" departLane="best" from="825263838#1" to="-242652627#0"/>
    <trip id="motorcycle1" type="motorcycle_motorcycle" depart="1.24" departLane="best" from="1195901266" to="1195901266"/>
    <trip id="motorcycle2" type="motorcycle_motorcycle" depart="2.49" departLane="best" from="8650048#1" to="-825494585#11"/>
    <trip id="motorcycle3" type="motorcycle_motorcycle" depart="3.73" departLane="best" departSpeed="max" from="404955582#0" to="292807008#2"/>
    <trip id="motorcycle4" type="motorcycle_motorcycle" depart="4.98" departLane="best" departSpeed="max" from="-138827709" to="1106843297#1"/>
    <trip id="motorcycle5" type="motorcycle_motorcycle" depart="6.22" departLane="best" from="825494637#0" to="779927697"/>
    <trip id="motorcycle6" type="motorcycle_motorcycle" depart="7.47" departLane="best" from="8647045#2" to="1120509015#0"/>
    <trip id="motorcycle7" type="motorcycle_motorcycle" depart="8.71" departLane="best" from="8647038#1" to="8640813#1"/>
    <trip id="motorcycle8" type="motorcycle_motorcycle" depart="9.96" departLane="best" from="242544492#0" to="970425331"/>
    <trip id="motorcycle10" type="motorcycle_motorcycle" depart="12.45" departLane="best" from="8648049#1" to="825263841"/>
    <trip id="motorcycle11" type="motorcycle_motorcycle" depart="13.69" departLane="best" from="8647038#3" to="8644437#5"/>
    <trip id="motorcycle12" type="motorcycle_motorcycle" depart="14.93" departLane="best" from="8647456#18" to="830619438#0"/>
    <trip id="motorcycle13" type="motorcycle_motorcycle" depart="16.18" departLane="best" departSpeed="max" from="8648527#0" to="822078648#1"/>
    <trip id="motorcycle14" type="motorcycle_motorcycle" depart="17.42" departLane="best" from="8639562#2" to="293227068#1"/>
    <trip id="motorcycle15" type="motorcycle_motorcycle" depart="18.67" departLane="best" from="1039343430#1" to="242536052#10"/>
    <trip id="motorcycle16" type="motorcycle_motorcycle" depart="19.91" departLane="best" from="825263830#3" to="380662088#0"/>
    <trip id="motorcycle17" type="motorcycle_motorcycle" depart="21.16" departLane="best" from="-1175628406#0" to="8651845#0"/>
    <trip id="motorcycle18" type="motorcycle_motorcycle" depart="22.40" departLane="best" from="825494585#6" to="825494585#11"/>
    <trip id="motorcycle19" type="motorcycle_motorcycle" depart="23.65" departLane="best" departSpeed="max" from="-8648025#1" to="8644437#1"/>
    <trip id="motorcycle20" type="motorcycle_motorcycle" depart="24.89" departLane="best" from="-8647263#1" to="420774507#4"/>
    <trip id="motorcycle21" type="motorcycle_motorcycle" depart="26.14" departLane="best" departSpeed="max" from="943443719" to="8636684#4"/>
    <trip id="motorcycle22" type="motorcycle_motorcycle" depart="27.38" departLane="best" from="591908557#0" to="8640122#0"/>
    <trip id="motorcycle24" type="motorcycle_motorcycle" depart="29.87" departLane="best" from="8650048#1" to="289456617#0"/>
    <trip id="motorcycle25" type="motorcycle_motorcycle" depart="31.11" departLane="best" departSpeed="max" from="828869387#0" to="426472927#0"/>
    <trip id="motorcycle26" type="motorcycle_motorcycle" depart="32.36" departLane="best" from="1160157713#0" to="-1323824615#2"/>
    <trip id="motorcycle27" type="motorcycle_motorcycle" depart="33.60" departLane="best" from="627355753" to="139069160"/>
    <trip id="motorcycle28" type="motorcycle_motorcycle" depart="34.85" departLane="best" from="747090067#0" to="8650349#3"/>
    <trip id="motorcycle29" type="motorcycle_motorcycle" depart="36.09" departLane="best" from="-990899889#3" to="591908557#0"/>
    <trip id="motorcycle31" type="motorcycle_motorcycle" depart="38.58" departLane="best" from="-85890979" to="-844528872#0"/>
    <trip id="motorcycle32" type="motorcycle_motorcycle" depart="39.83" departLane="best" departSpeed="max" from="89641548" to="8648609#1"/>
    <trip id="motorcycle33" type="motorcycle_motorcycle" depart="41.07" departLane="best" from="8637586#1" to="747090068#1"/>
    <trip id="motorcycle34" type="motorcycle_motorcycle" depart="42.31" departLane="best" from="1175628406#0" to="8636684#5"/>
    <trip id="motorcycle35" type="motorcycle_motorcycle" depart="43.56" departLane="best" from="862549735#0" to="290084391#1"/>
    <trip id="motorcycle36" type="motorcycle_motorcycle" depart="44.80" departLane="best" from="485292839#1" to="104210747#5"/>
    <trip id="motorcycle37" type="motorcycle_motorcycle" depart="46.05" departLane="best" from="1323824616#1" to="8636143"/>
    <trip id="motorcycle38" type="motorcycle_motorcycle" depart="47.29" departLane="best" from="815603050#4" to="-943142505#1"/>
    <trip id="motorcycle39" type="motorcycle_motorcycle" depart="48.54" departLane="best" from="8645216#0" to="747090074"/>
    <trip id="motorcycle40" type="motorcycle_motorcycle" depart="49.78" departLane="best" from="-103553904#1" to="289462997#5"/>
    <trip id="motorcycle41" type="motorcycle_motorcycle" depart="51.03" departLane="best" from="1160157713#0" to="8649126#2"/>
    <trip id="motorcycle42" type="motorcycle_motorcycle" depart="52.27" departLane="best" departSpeed="max" from="404955582#0" to="1154673770#1"/>
    <trip id="motorcycle43" type="motorcycle_motorcycle" depart="53.52" departLane="best" from="591217296#0" to="8644437#5"/>
    <trip id="motorcycle44" type="motorcycle_motorcycle" depart="54.76" departLane="best" from="-985552044#0" to="289424188#11"/>
    <trip id="motorcycle45" type="motorcycle_motorcycle" depart="56.00" departLane="best" from="-970425331" to="8638014#5"/>
    <trip id="motorcycle46" type="motorcycle_motorcycle" depart="57.25" departLane="best" from="426456618#0" to="63104564#1"/>
    <trip id="motorcycle47" type="motorcycle_motorcycle" depart="58.49" departLane="best" from="8638403#1" to="-1198318807#1"/>
    <trip id="motorcycle48" type="motorcycle_motorcycle" depart="59.74" departLane="best" from="242536052#5" to="825263822#1"/>
    <trip id="motorcycle49" type="motorcycle_motorcycle" depart="60.98" departLane="best" from="104210747#2" to="1188182971#1"/>
    <trip id="motorcycle50" type="motorcycle_motorcycle" depart="62.23" departLane="best" departSpeed="max" from="-495576909#2" to="848108950"/>
    <trip id="motorcycle51" type="motorcycle_motorcycle" depart="63.47" departLane="best" from="104205451#0" to="426489344#1"/>
    <trip id="motorcycle52" type="motorcycle_motorcycle" depart="64.72" departLane="best" from="8648507#2" to="-573357374#6"/>
    <trip id="motorcycle53" type="motorcycle_motorcycle" depart="65.96" departLane="best" from="1089126780#1" to="8639327#5"/>
    <trip id="motorcycle54" type="motorcycle_motorcycle" depart="67.21" departLane="best" from="1018283100" to="8646816#1"/>
    <trip id="motorcycle55" type="motorcycle_motorcycle" depart="68.45" departLane="best" departSpeed="max" from="404955582#0" to="51811528#0"/>
    <trip id="motorcycle56" type="motorcycle_motorcycle" depart="69.69" departLane="best" from="8641166#3" to="862549735#0"/>
    <trip id="motorcycle57" type="motorcycle_motorcycle" depart="70.94" departLane="best" from="941562892" to="85890979"/>
    <trip id="motorcycle58" type="motorcycle_motorcycle" depart="72.18" departLane="best" departSpeed="max" from="8648527#0" to="-1323824617#1"/>
    <trip id="motorcycle59" type="motorcycle_motorcycle" depart="73.43" departLane="best" departSpeed="max" from="-8651358#1" to="485292837#1"/>
    <trip id="motorcycle60" type="motorcycle_motorcycle" depart="74.67" departLane="best" departSpeed="max" from="404955582#0" to="187589429#1"/>
    <trip id="motorcycle61" type="motorcycle_motorcycle" depart="75.92" departLane="best" from="1106843296" to="8651355#1"/>
    <trip id="motorcycle62" type="motorcycle_motorcycle" depart="77.16" departLane="best" from="426456654" to="8648663#1"/>
    <trip id="motorcycle63" type="motorcycle_motorcycle" depart="78.41" departLane="best" from="993825359#2" to="8647891#1"/>
    <trip id="motorcycle64" type="motorcycle_motorcycle" depart="79.65" departLane="best" from="89641252#2" to="8651358#1"/>
    <trip id="motorcycle65" type="motorcycle_motorcycle" depart="80.90" departLane="best" from="8648049#3" to="1018283099#2"/>
    <trip id="motorcycle66" type="motorcycle_motorcycle" depart="82.14" departLane="best" from="426870767#1" to="1166056604#1"/>
    <trip id="motorcycle67" type="motorcycle_motorcycle" depart="83.38" departLane="best" from="1160157713#0" to="8646653#0"/>
    <trip id="motorcycle68" type="motorcycle_motorcycle" depart="84.63" departLane="best" from="8865426#4" to="985552044#2"/>
    <trip id="motorcycle69" type="motorcycle_motorcycle" depart="85.87" departLane="best" from="591908556#1" to="-8642454#1"/>
    <trip id="motorcycle72" type="motorcycle_motorcycle" depart="89.61" departLane="best" departSpeed="max" from="-8646916#1" to="8865427#0"/>
    <trip id="motorcycle73" type="motorcycle_motorcycle" depart="90.85" departLane="best" from="-678127463#3" to="1089126780#1"/>
    <trip id="motorcycle74" type="motorcycle_motorcycle" depart="92.10" departLane="best" from="801839131" to="8639568#1"/>
    <trip id="motorcycle75" type="motorcycle_motorcycle" depart="93.34" departLane="best" from="8649840#1" to="-1323824615#1"/>
    <trip id="motorcycle76" type="motorcycle_motorcycle" depart="94.59" departLane="best" from="1089126782#0" to="426472927#0"/>
    <trip id="motorcycle77" type="motorcycle_motorcycle" depart="95.83" departLane="best" departSpeed="max" from="85310729#0" to="242632754#0"/>
    <trip id="motorcycle80" type="motorcycle_motorcycle" depart="99.56" departLane="best" from="8649126#4" to="8649630#11"/>
    <trip id="motorcycle81" type="motorcycle_motorcycle" depart="100.81" departLane="best" from="-8647350#4" to="242631723#2"/>
    <trip id="motorcycle82" type="motorcycle_motorcycle" depart="102.05" departLane="best" from="840928388#0" to="8652182"/>
    <trip id="motorcycle83" type="motorcycle_motorcycle" depart="103.30" departLane="best" from="-8641571#4" to="-8642454#2"/>
    <trip id="motorcycle84" type="motorcycle_motorcycle" depart="104.54" departLane="best" from="-844528872#2" to="806281874#1"/>
    <trip id="motorcycle85" type="motorcycle_motorcycle" depart="105.79" departLane="best" from="8640309#2" to="1121209367#0"/>
    <trip id="motorcycle86" type="motorcycle_motorcycle" depart="107.03" departLane="best" from="825263837#4" to="139069160"/>
    <trip id="motorcycle87" type="motorcycle_motorcycle" depart="108.28" departLane="best" from="448441075#2" to="426489344#1"/>
    <trip id="motorcycle89" type="motorcycle_motorcycle" depart="110.76" departLane="best" departSpeed="max" from="404955582#0" to="183524213#4"/>
    <trip id="motorcycle90" type="motorcycle_motorcycle" depart="112.01" departLane="best" from="1089085521#1" to="-8646506#1"/>
    <trip id="motorcycle91" type="motorcycle_motorcycle" depart="113.25" departLane="best" from="825263837#1" to="1329471323"/>
    <trip id="motorcycle92" type="motorcycle_motorcycle" depart="114.50" departLane="best" from="8647491#3" to="823316160"/>
    <trip id="motorcycle93" type="motorcycle_motorcycle" depart="115.74" departLane="best" from="-8646223#1" to="-8646460#3"/>
    <trip id="motorcycle94" type="motorcycle_motorcycle" depart="116.99" departLane="best" from="138827726#0" to="8650366#1"/>
    <trip id="motorcycle95" type="motorcycle_motorcycle" depart="118.23" departLane="best" from="8646598#1" to="8648609#1"/>
    <trip id="motorcycle97" type="motorcycle_motorcycle" depart="120.72" departLane="best" from="380662074#1" to="830619438#3"/>
    <trip id="motorcycle98" type="motorcycle_motorcycle" depart="121.96" departLane="best" from="-8646506#2" to="8651512#0"/>
    <trip id="motorcycle100" type="motorcycle_motorcycle" depart="124.45" departLane="best" from="8647066#0" to="8649630#8"/>
    <trip id="motorcycle101" type="motorcycle_motorcycle" depart="125.70" departLane="best" from="-1323824617#0" to="8645083#10"/>
    <trip id="motorcycle102" type="motorcycle_motorcycle" depart="126.94" departLane="best" from="241180702#4" to="8651512#3"/>
    <trip id="motorcycle103" type="motorcycle_motorcycle" depart="128.19" departLane="best" from="8646770#1" to="8648788#2"/>
    <trip id="motorcycle104" type="motorcycle_motorcycle" depart="129.43" departLane="best" from="8648789#1" to="8648588#1"/>
    <trip id="motorcycle105" type="motorcycle_motorcycle" depart="130.68" departLane="best" from="103553906#2" to="8647456#12"/>
    <trip id="motorcycle106" type="motorcycle_motorcycle" depart="131.92" departLane="best" from="8646598#0" to="1280740663#0"/>
    <trip id="motorcycle107" type="motorcycle_motorcycle" depart="133.17" departLane="best" from="-1323824616#1" to="1098934122#1"/>
    <trip id="motorcycle108" type="motorcycle_motorcycle" depart="134.41" departLane="best" from="199586487#0" to="8648789#1"/>
    <trip id="motorcycle109" type="motorcycle_motorcycle" depart="135.65" departLane="best" from="8866322#1" to="140065785#1"/>
    <trip id="motorcycle111" type="motorcycle_motorcycle" depart="138.14" departLane="best" from="-1120509015#1" to="8641571#2"/>
    <trip id="motorcycle112" type="motorcycle_motorcycle" depart="139.39" departLane="best" from="104205451#0" to="8651358#1"/>
    <trip id="motorcycle113" type="motorcycle_motorcycle" depart="140.63" departLane="best" from="591136310#3" to="8642454#2"/>
    <trip id="motorcycle114" type="motorcycle_motorcycle" depart="141.88" departLane="best" from="-8642454#2" to="8639350#7"/>
    <trip id="motorcycle115" type="motorcycle_motorcycle" depart="143.12" departLane="best" from="289462374#11" to="-573357374#4"/>
    <trip id="motorcycle116" type="motorcycle_motorcycle" depart="144.37" departLane="best" from="840928388#1" to="289631068#1"/>
    <trip id="motorcycle117" type="motorcycle_motorcycle" depart="145.61" departLane="best" from="163516970#0" to="8648218#1"/>
    <trip id="motorcycle118" type="motorcycle_motorcycle" depart="146.86" departLane="best" from="8640532#0" to="242633872#0"/>
    <trip id="motorcycle119" type="motorcycle_motorcycle" depart="148.10" departLane="best" from="138827726#1" to="426488940#4"/>
    <trip id="motorcycle120" type="motorcycle_motorcycle" depart="149.34" departLane="best" departSpeed="max" from="8652342#0" to="8639923#2"/>
    <trip id="motorcycle121" type="motorcycle_motorcycle" depart="150.59" departLane="best" from="8650366#0" to="826634235"/>
    <trip id="motorcycle122" type="motorcycle_motorcycle" depart="151.83" departLane="best" from="-103553904#1" to="241180702#4"/>
    <trip id="motorcycle123" type="motorcycle_motorcycle" depart="153.08" departLane="best" from="426456637" to="1160157713#0"/>
    <trip id="motorcycle124" type="motorcycle_motorcycle" depart="154.32" departLane="best" from="8647351#10" to="8646035#5"/>
    <trip id="motorcycle125" type="motorcycle_motorcycle" depart="155.57" departLane="best" from="-944109700#2" to="242633873#0"/>
    <trip id="motorcycle126" type="motorcycle_motorcycle" depart="156.81" departLane="best" from="8648049#4" to="591677205"/>
    <trip id="motorcycle127" type="motorcycle_motorcycle" depart="158.06" departLane="best" from="-8865420#2" to="8640571#1"/>
    <trip id="motorcycle128" type="motorcycle_motorcycle" depart="159.30" departLane="best" from="-844528872#0" to="426497570#3"/>
    <trip id="motorcycle129" type="motorcycle_motorcycle" depart="160.55" departLane="best" from="8648219#1" to="8865426#14"/>
    <trip id="motorcycle130" type="motorcycle_motorcycle" depart="161.79" departLane="best" from="1106843295#1" to="8648218#1"/>
    <trip id="motorcycle131" type="motorcycle_motorcycle" depart="163.03" departLane="best" from="426488940#1" to="8647156#1"/>
    <trip id="motorcycle132" type="motorcycle_motorcycle" depart="164.28" departLane="best" from="846628946#1" to="-943460422#1"/>
    <trip id="motorcycle133" type="motorcycle_motorcycle" depart="165.52" departLane="best" from="801839131" to="879039476#0"/>
    <trip id="motorcycle134" type="motorcycle_motorcycle" depart="166.77" departLane="best" from="-8640516#0" to="591278027#1"/>
    <trip id="motorcycle135" type="motorcycle_motorcycle" depart="168.01" departLane="best" from="8650333#1" to="8645216#1"/>
    <trip id="motorcycle136" type="motorcycle_motorcycle" depart="169.26" departLane="best" departSpeed="max" from="426492009#0" to="138827717#0"/>
    <trip id="motorcycle137" type="motorcycle_motorcycle" depart="170.50" departLane="best" from="1098934123#0" to="862549735#1"/>
    <trip id="motorcycle138" type="motorcycle_motorcycle" depart="171.75" departLane="best" from="8645216#5" to="63104590#1"/>
    <trip id="motorcycle139" type="motorcycle_motorcycle" depart="172.99" departLane="best" from="823316159#1" to="173473723#3"/>
    <trip id="motorcycle140" type="motorcycle_motorcycle" depart="174.24" departLane="best" from="-63104587#2" to="241180702#2"/>
    <trip id="motorcycle141" type="motorcycle_motorcycle" depart="175.48" departLane="best" from="1188182971#1" to="289462374#2"/>
    <trip id="motorcycle142" type="motorcycle_motorcycle" depart="176.72" departLane="best" from="591217297#1" to="8648179#2"/>
    <trip id="motorcycle143" type="motorcycle_motorcycle" depart="177.97" departLane="best" from="104210747#5" to="8640532#0"/>
    <trip id="motorcycle144" type="motorcycle_motorcycle" depart="179.21" departLane="best" from="380662074#2" to="749812082#2"/>
    <trip id="motorcycle145" type="motorcycle_motorcycle" depart="180.46" departLane="best" from="380662088#3" to="1121981969#1"/>
    <trip id="motorcycle146" type="motorcycle_motorcycle" depart="181.70" departLane="best" from="404955581#1" to="426489344#1"/>
    <trip id="motorcycle147" type="motorcycle_motorcycle" depart="182.95" departLane="best" from="747090065" to="8640537#1"/>
    <trip id="motorcycle148" type="motorcycle_motorcycle" depart="184.19" departLane="best" departSpeed="max" from="8648357#0" to="8646389#7"/>
    <trip id="motorcycle149" type="motorcycle_motorcycle" depart="185.44" departLane="best" from="-292807009#3" to="-1120503844"/>
    <trip id="motorcycle150" type="motorcycle_motorcycle" depart="186.68" departLane="best" from="242998461#3" to="8646058"/>
    <trip id="motorcycle151" type="motorcycle_motorcycle" depart="187.93" departLane="best" from="8648229#4" to="8865425#1"/>
    <trip id="motorcycle153" type="motorcycle_motorcycle" depart="190.41" departLane="best" from="103553904#1" to="1188182970#1"/>
    <trip id="motorcycle154" type="motorcycle_motorcycle" depart="191.66" departLane="best" from="242536052#13" to="8639962#1"/>
    <trip id="motorcycle155" type="motorcycle_motorcycle" depart="192.90" departLane="best" from="-426491164#0" to="-8646460#3"/>
    <trip id="motorcycle156" type="motorcycle_motorcycle" depart="194.15" departLane="best" departSpeed="max" from="-138827709" to="8637534#1"/>
    <trip id="motorcycle157" type="motorcycle_motorcycle" depart="195.39" departLane="best" from="8642454#0" to="48982055#1"/>
    <trip id="motorcycle158" type="motorcycle_motorcycle" depart="196.64" departLane="best" from="1013953519#1" to="289468262#0"/>
    <trip id="motorcycle159" type="motorcycle_motorcycle" depart="197.88" departLane="best" from="8645083#6" to="420774507#4"/>
    <trip id="motorcycle160" type="motorcycle_motorcycle" depart="199.13" departLane="best" from="1119835971#0" to="798341511#4"/>
    <trip id="motorcycle161" type="motorcycle_motorcycle" depart="200.37" departLane="best" from="-1312615596" to="747090074"/>
    <trip id="motorcycle162" type="motorcycle_motorcycle" depart="201.62" departLane="best" from="825494637#1" to="247748351#0"/>
    <trip id="motorcycle163" type="motorcycle_motorcycle" depart="202.86" departLane="best" from="-8865420#3" to="1108974693#1"/>
    <trip id="motorcycle164" type="motorcycle_motorcycle" depart="204.10" departLane="best" from="-1313300066" to="-8866322#2"/>
    <trip id="motorcycle165" type="motorcycle_motorcycle" depart="205.35" departLane="best" from="-8639923#5" to="8639350#1"/>
    <trip id="motorcycle166" type="motorcycle_motorcycle" depart="206.59" departLane="best" from="63104564#0" to="1188182969#1"/>
    <trip id="motorcycle167" type="motorcycle_motorcycle" depart="207.84" departLane="best" from="8639327#2" to="8646455#1"/>
    <trip id="motorcycle168" type="motorcycle_motorcycle" depart="209.08" departLane="best" from="8647351#5" to="8866323#0"/>
    <trip id="motorcycle169" type="motorcycle_motorcycle" depart="210.33" departLane="best" from="-851480300#1" to="289456617#0"/>
    <trip id="motorcycle170" type="motorcycle_motorcycle" depart="211.57" departLane="best" from="8865426#8" to="426472927#1"/>
    <trip id="motorcycle171" type="motorcycle_motorcycle" depart="212.82" departLane="best" from="8640122#3" to="-678127463#0"/>
    <trip id="motorcycle172" type="motorcycle_motorcycle" depart="214.06" departLane="best" from="8638252#5" to="844528872#0"/>
    <trip id="motorcycle173" type="motorcycle_motorcycle" depart="215.31" departLane="best" from="825494585#9" to="8646520#1"/>
    <trip id="motorcycle174" type="motorcycle_motorcycle" depart="216.55" departLane="best" from="-8638403#1" to="941562892"/>
    <trip id="motorcycle175" type="motorcycle_motorcycle" depart="217.79" departLane="best" from="8646455#0" to="333071936#1"/>
    <trip id="motorcycle176" type="motorcycle_motorcycle" depart="219.04" departLane="best" from="1013953519#2" to="-292812690#1"/>
    <trip id="motorcycle177" type="motorcycle_motorcycle" depart="220.28" departLane="best" from="8639923#7" to="426831015"/>
    <trip id="motorcycle179" type="motorcycle_motorcycle" depart="222.77" departLane="best" from="591136310#3" to="579272296#0"/>
    <trip id="motorcycle180" type="motorcycle_motorcycle" depart="224.02" departLane="best" from="426456594#3" to="8637586#3"/>
    <trip id="motorcycle181" type="motorcycle_motorcycle" depart="225.26" departLane="best" from="1185620974#2" to="8648270#1"/>
    <trip id="motorcycle182" type="motorcycle_motorcycle" depart="226.51" departLane="best" from="8647456#3" to="-825494585#11"/>
    <trip id="motorcycle183" type="motorcycle_motorcycle" depart="227.75" departLane="best" from="8649126#6" to="1317279602"/>
    <trip id="motorcycle184" type="motorcycle_motorcycle" depart="229.00" departLane="best" from="-292807008#4" to="-292807008#1"/>
    <trip id="motorcycle185" type="motorcycle_motorcycle" depart="230.24" departLane="best" from="8648179#2" to="-1089085521#2"/>
    <trip id="motorcycle186" type="motorcycle_motorcycle" depart="231.48" departLane="best" from="242544492#0" to="8649630#5"/>
    <trip id="motorcycle187" type="motorcycle_motorcycle" depart="232.73" departLane="best" from="8639350#4" to="183524213#2"/>
    <trip id="motorcycle188" type="motorcycle_motorcycle" depart="233.97" departLane="best" from="1198318807#0" to="8652524#1"/>
    <trip id="motorcycle189" type="motorcycle_motorcycle" depart="235.22" departLane="best" from="-798341511#2" to="8642489#0"/>
    <trip id="motorcycle190" type="motorcycle_motorcycle" depart="236.46" departLane="best" from="448441075#2" to="8646223#5"/>
    <trip id="motorcycle191" type="motorcycle_motorcycle" depart="237.71" departLane="best" from="8638252#5" to="8637586#6"/>
    <trip id="motorcycle192" type="motorcycle_motorcycle" depart="238.95" departLane="best" from="485269334#2" to="8647038#2"/>
    <trip id="motorcycle194" type="motorcycle_motorcycle" depart="241.44" departLane="best" from="747090063#2" to="555541342#0"/>
    <trip id="motorcycle195" type="motorcycle_motorcycle" depart="242.69" departLane="best" from="8643846#1" to="289631068#2"/>
    <trip id="motorcycle196" type="motorcycle_motorcycle" depart="243.93" departLane="best" from="8639478#0" to="172092941#6"/>
    <trip id="motorcycle197" type="motorcycle_motorcycle" depart="245.17" departLane="best" from="1108974693#1" to="-8646223#1"/>
    <trip id="motorcycle198" type="motorcycle_motorcycle" depart="246.42" departLane="best" from="591136306#2" to="8646359#4"/>
    <trip id="motorcycle199" type="motorcycle_motorcycle" depart="247.66" departLane="best" departSpeed="max" from="-8651156#2" to="1185620974#2"/>
    <trip id="motorcycle200" type="motorcycle_motorcycle" depart="248.91" departLane="best" from="426831015" to="8643915#1"/>
    <trip id="motorcycle201" type="motorcycle_motorcycle" depart="250.15" departLane="best" from="-8865420#2" to="579261235#0"/>
    <trip id="motorcycle202" type="motorcycle_motorcycle" depart="251.40" departLane="best" departSpeed="max" from="-8649580#1" to="-1312615596"/>
    <trip id="motorcycle203" type="motorcycle_motorcycle" depart="252.64" departLane="best" from="89691955#3" to="806281875#0"/>
    <trip id="motorcycle205" type="motorcycle_motorcycle" depart="255.13" departLane="best" from="8648789#2" to="818642780"/>
    <trip id="motorcycle206" type="motorcycle_motorcycle" depart="256.38" departLane="best" from="-426491387#1" to="448441075#2"/>
    <trip id="motorcycle207" type="motorcycle_motorcycle" depart="257.62" departLane="best" from="8650900#1" to="-426456571#1"/>
    <trip id="motorcycle208" type="motorcycle_motorcycle" depart="258.86" departLane="best" from="8652409#0" to="573357374#1"/>
    <trip id="motorcycle209" type="motorcycle_motorcycle" depart="260.11" departLane="best" from="573357374#4" to="846628946#0"/>
    <trip id="motorcycle210" type="motorcycle_motorcycle" depart="261.35" departLane="best" departSpeed="max" from="-426456738#2" to="8865420#1"/>
    <trip id="motorcycle212" type="motorcycle_motorcycle" depart="263.84" departLane="best" from="947114313#2" to="-8643915#3"/>
    <trip id="motorcycle213" type="motorcycle_motorcycle" depart="265.09" departLane="best" from="8645216#3" to="825494574#1"/>
    <trip id="motorcycle214" type="motorcycle_motorcycle" depart="266.33" departLane="best" departSpeed="max" from="822078647#0" to="825494585#3"/>
    <trip id="motorcycle215" type="motorcycle_motorcycle" depart="267.58" departLane="best" from="8642149#0" to="8652524#1"/>
    <trip id="motorcycle216" type="motorcycle_motorcycle" depart="268.82" departLane="best" from="1000832623#0" to="1147916780"/>
    <trip id="motorcycle217" type="motorcycle_motorcycle" depart="270.07" departLane="best" from="830619438#2" to="990899889#1"/>
    <trip id="motorcycle218" type="motorcycle_motorcycle" depart="271.31" departLane="best" from="1089085521#0" to="485292838#3"/>
    <trip id="motorcycle219" type="motorcycle_motorcycle" depart="272.55" departLane="best" from="104210747#8" to="8641175#1"/>
    <trip id="motorcycle220" type="motorcycle_motorcycle" depart="273.80" departLane="best" from="8639478#0" to="485292840#1"/>
    <trip id="motorcycle221" type="motorcycle_motorcycle" depart="275.04" departLane="best" from="242536052#6" to="8651355#2"/>
    <trip id="motorcycle222" type="motorcycle_motorcycle" depart="276.29" departLane="best" from="830619438#3" to="8651566#3"/>
    <trip id="motorcycle223" type="motorcycle_motorcycle" depart="277.53" departLane="best" departSpeed="max" from="41940341#0" to="761030415"/>
    <trip id="motorcycle224" type="motorcycle_motorcycle" depart="278.78" departLane="best" from="825494585#6" to="8651073#1"/>
    <trip id="motorcycle225" type="motorcycle_motorcycle" depart="280.02" departLane="best" departSpeed="max" from="-8647494#1" to="247748351#0"/>
    <trip id="motorcycle226" type="motorcycle_motorcycle" depart="281.27" departLane="best" from="8643915#4" to="816366950#2"/>
    <trip id="motorcycle227" type="motorcycle_motorcycle" depart="282.51" departLane="best" from="1285819769#1" to="-8646375#0"/>
    <trip id="motorcycle228" type="motorcycle_motorcycle" depart="283.76" departLane="best" from="8638252#1" to="8640819#2"/>
    <trip id="motorcycle229" type="motorcycle_motorcycle" depart="285.00" departLane="best" from="8652409#2" to="591235976#0"/>