<?xml version="1.0" encoding="UTF-8"?>

<!-- generated on 2024-10-29 20:01:54 by Eclipse SUMO polyconvert Version 1.21.0
<polyconvertConfiguration xmlns:xsi="http://www.w3.org/2001/XMLSchema-instance" xsi:noNamespaceSchemaLocation="http://sumo.dlr.de/xsd/polyconvertConfiguration.xsd">

    <input>
        <net-file value="osm.net.xml.gz"/>
        <osm-files value="osm_bbox.osm.xml.gz"/>
        <osm.keep-full-type value="true"/>
        <osm.merge-relations value="1"/>
        <type-file value="${SUMO_HOME}\data\typemap\osmPolyconvert.typ.xml"/>
    </input>

    <output>
        <output-file value="osm.poly.xml.gz"/>
    </output>

    <report>
        <verbose value="true"/>
    </report>

</polyconvertConfiguration>
-->

<additional xmlns:xsi="http://www.w3.org/2001/XMLSchema-instance" xsi:noNamespaceSchemaLocation="http://sumo.dlr.de/xsd/additional_file.xsd">
    <location netOffset="-329537.79,-4691449.52" convBoundary="-0.00,-0.84,1285.41,699.75" origBoundary="-71.069853,42.356882,-71.054404,42.362946" projParameter="+proj=utm +zone=19 +ellps=WGS84 +datum=WGS84 +units=m +no_defs"/>

    <poly id="1004421027" type="amenity.hospital" color="237,199,199" fill="0" layer="-1.00" shape="267.429862,684.911529 285.675487,680.945739 290.931882,678.884650 298.922994,676.445974 308.805615,672.839129 326.353712,673.056966"/>
    <poly id="1004421028" type="amenity.social_facility" color="237,199,199" fill="1" layer="-1.00" shape="397.105657,625.405313 326.998536,625.686947 326.353712,673.056966 401.078457,689.207114 397.105657,625.405313"/>
    <poly id="1004592153" type="building.yes" color="255,230,230" fill="1" layer="-1.00" shape="147.231174,26.085125 153.415893,27.612394 150.284250,39.121627 144.207146,37.613964 147.231174,26.085125"/>
    <poly id="1007903189" type="landuse.residential" color="235,235,227" fill="1" layer="-3.00" shape="498.934405,679.663620 496.366177,657.037707 488.130900,659.604302 492.300338,675.213737 444.221783,689.514470 443.082078,684.997831"/>
    <poly id="1008160593" type="building.office" color="255,230,230" fill="1" layer="-1.00" shape="829.872990,673.546009 835.623417,674.184395 841.129536,674.262057 846.287955,673.592616 851.155781,672.152466 854.876410,670.295688 858.570238,667.672918 861.329742,664.917240 862.659146,662.651758 863.688215,659.893570 863.356405,656.401714 862.195869,652.374400 860.570451,649.224993 858.626286,646.183307 856.554663,643.322483 854.493264,640.883621 852.509315,638.920646 850.309638,636.896235 846.803704,634.692376 840.797370,631.315817 833.624607,628.089751 827.219692,625.267292 820.016346,622.819735 812.606743,621.721590 804.827263,622.021267 798.630109,622.671473 793.542171,624.550315 789.023606,629.181943 787.342104,631.878185 786.791771,634.669223 786.754925,638.247790 787.498858,642.762957 790.030669,648.290307 793.275696,653.667038 797.532336,658.285935 802.675554,662.427802 808.310876,666.135534 815.342274,669.309445 821.939573,671.571690 829.872990,673.546009"/>
    <poly id="103547823" type="building.yes" color="255,230,230" fill="1" layer="-1.00" shape="1207.178838,125.006978 1200.324325,128.139282 1209.050405,137.316872 1212.069683,135.066166 1215.350233,137.486766 1217.149831,135.232219 1207.178838,125.006978"/>
    <poly id="103548393" type="building.yes" color="255,230,230" fill="1" layer="-1.00" shape="1223.696396,210.027010 1259.642346,215.880040 1267.317556,194.884106 1240.078906,184.487344 1236.493453,195.018118 1250.441518,200.691849 1248.870805,204.574134 1223.626129,197.918000 1223.696396,210.027010"/>
    <poly id="103548394" type="leisure.park" color="207,245,201" fill="1" layer="-2.00" shape="1212.261583,113.351136 1193.835014,119.452042 1198.303309,103.855622 1212.261583,113.351136"/>
    <poly id="103548396" type="building.yes" color="255,230,230" fill="1" layer="-1.00" shape="1188.803372,144.806211 1199.953079,148.569805 1201.253615,144.760706 1205.117290,146.078349 1205.548147,144.812417 1206.163504,142.997598 1208.007928,143.619647 1213.293591,145.469561 1215.152874,146.024588 1215.005257,146.394812 1223.386791,149.503172 1223.856049,148.802961 1230.991674,151.163700 1235.387790,152.690703 1234.961395,154.823162 1234.675286,155.941153 1240.170044,157.919360 1252.084087,161.942326 1247.775455,174.601614 1243.895602,173.295450 1241.471571,180.398257 1240.078906,184.487344 1236.493453,195.018118 1234.865050,194.468616 1232.505471,193.670132 1228.459302,192.301333 1226.989660,196.614499 1221.697146,194.820296 1220.541811,198.159230 1219.841503,200.209428 1219.610544,200.881656 1219.142197,212.525928 1218.962147,217.007910 1214.225580,238.888378 1166.543053,227.486285 1163.574578,222.636017 1178.795302,174.280599 1179.211024,173.070585 1181.018842,167.749262 1181.426597,166.550552 1182.681186,166.975753 1186.211882,156.568492 1184.957291,156.143289 1185.380714,154.910868 1187.318882,149.186409 1187.734338,147.965292 1188.803372,144.806211"/>
    <poly id="103556360" type="building.yes" color="255,230,230" fill="1" layer="-1.00" shape="1189.474036,274.430174 1192.026257,265.135425 1202.777704,267.430916 1202.408084,269.184240 1207.732061,270.577679 1206.070249,277.506523 1200.020659,275.752867 1199.681209,277.049921 1189.474036,274.430174"/>
    <poly id="103616989" type="building.retail" color="255,230,230" fill="1" layer="-1.00" shape="1101.499998,438.908503 1091.799919,435.443330 1089.239260,434.505324 1084.294405,434.813863 1094.937254,404.023968 1113.080700,411.118072 1104.312627,431.529570 1101.499998,438.908503"/>
    <poly id="1051864106" type="amenity.parking" color="184,184,179" fill="1" layer="-1.00" shape="76.511914,442.595908 73.066569,442.557558 70.679672,442.671217 66.167235,447.203182 63.858030,449.492678 60.133055,452.861060 59.871818,462.100533 59.939645,468.609838 63.969684,468.633947 63.960947,469.967461 68.815327,470.004837 68.820029,469.182520 75.990152,469.230193 75.979647,470.152649 96.535860,467.319007 75.937713,467.075966 76.012874,460.685400 74.702108,460.661754 74.945596,448.322789 76.452121,448.263895 76.511914,442.595908"/>
    <poly id="1074327790" type="landuse.construction" color="194,194,130" fill="1" layer="-3.00" shape="169.696706,513.904145 169.710989,605.257112 241.756221,606.048975 240.005913,514.427174 169.696706,513.904145"/>
    <poly id="1074969880" type="landuse.grass" color="194,194,130" fill="0" layer="-3.00" shape="382.172720,18.262085 387.268905,19.760451 391.464162,20.469618 394.909593,19.485939"/>
    <poly id="1074969883" type="landuse.grass" color="194,194,130" fill="0" layer="-3.00" shape="408.234096,18.440047 409.404628,19.811575 410.897578,20.886389 412.837852,21.039252 415.072619,20.084992"/>
    <poly id="1074969884" type="landuse.grass" color="194,194,130" fill="0" layer="-3.00" shape="507.090772,52.782750 508.881321,59.327984 508.435849,61.005419 507.308330,61.743884 505.192154,61.473047 496.000647,57.607433 471.923674,46.836813 450.118171,37.644395 428.689759,31.087255 425.442855,30.066150 423.254990,29.219317 422.019906,28.582669 421.172050,27.603291 420.956732,26.541883 421.328046,25.544002 421.871773,24.519712 423.377328,23.738718 425.463706,23.121390"/>
    <poly id="1074969885" type="landuse.grass" color="194,194,130" fill="0" layer="-3.00" shape="509.062412,51.512695 511.011058,51.332057"/>
    <poly id="1074969888" type="landuse.grass" color="194,194,130" fill="0" layer="-3.00" shape="520.960614,33.468787 515.113619,59.765552 515.202512,61.730006 515.599783,63.498089 516.528873,65.108821 517.677782,66.269785 532.321344,73.058548 536.611995,73.965479 539.252468,73.090296 540.523140,71.459498 541.405923,69.804783 541.927351,66.503330 549.995612,23.753143"/>
    <poly id="1074969894" type="landuse.grass" color="194,194,130" fill="0" layer="-3.00" shape="585.334596,27.273149 548.815018,75.269229 547.972904,76.222976 546.519788,75.769371 546.776655,74.129849 551.182666,49.912477"/>
    <poly id="108235738" type="building.yes" color="255,230,230" fill="1" layer="-1.00" shape="800.300898,17.782298 785.431003,27.486861 787.612683,30.800547 790.675751,35.459496 793.893250,40.370251 802.722792,53.789177 804.733820,56.862566 810.329110,65.360035 816.481238,74.732876 819.539560,72.736598 821.413422,75.591100 832.579951,68.131837 830.752922,65.509523 832.672776,64.140820 824.545759,52.504782 802.571821,21.038271 800.300898,17.782298"/>
    <poly id="1112835156" type="leisure.playground" color="207,245,201" fill="1" layer="-2.00" shape="998.437566,485.068280 976.980539,492.220941 965.896101,485.011803 967.294319,479.800326 961.818406,477.233013 957.381479,474.696097 954.085355,476.053658 936.145101,464.421849 938.310883,454.158595 979.091633,462.681843 984.492455,465.550978 989.499114,470.518486 994.786798,477.223582 998.437566,485.068280"/>
    <poly id="1112835164" type="building.yes" color="255,230,230" fill="1" layer="-1.00" shape="987.782677,516.358631 971.662891,514.904568 973.248249,497.344495 989.376041,498.787259 987.782677,516.358631"/>
    <poly id="1115273726" type="building.yes" color="255,230,230" fill="1" layer="-1.00" shape="778.873382,480.365696 780.108832,480.002422 781.395687,480.060112 782.601377,480.508647 783.644085,481.372233 784.331171,482.522209 784.602027,483.837827 784.411977,485.175728 783.798160,486.368351 782.814993,487.281048 781.584121,487.833094 780.235153,487.932460 778.933065,487.586259 777.869420,486.878733 777.078236,485.853500 776.661566,484.641414 776.646810,483.352921 777.045701,482.132175 777.811790,481.102521 778.873382,480.365696"/>
    <poly id="1115273727" type="building.yes" color="255,230,230" fill="1" layer="-1.00" shape="806.641711,435.116118 807.877170,434.752849 809.164034,434.810545 810.369728,435.259085 811.412439,436.122675 812.099525,437.272654 812.370376,438.588272 812.180050,439.915068 811.566224,441.107689 810.583316,442.031485 809.352164,442.572422 808.003457,442.682887 806.701362,442.336681 805.629209,441.618245 804.846529,440.603913 804.421627,439.392026 804.415112,438.103333 804.814011,436.882589 805.580109,435.852939 806.641711,435.116118"/>
    <poly id="1115616596" type="highway.pedestrian" color="white" fill="1" layer="0.00" shape="841.389745,366.398229 842.509703,367.048847 847.260168,359.056192 846.148176,358.394270 841.389745,366.398229"/>
    <poly id="1115616597" type="highway.pedestrian" color="white" fill="1" layer="0.00" shape="823.090967,396.774122 824.211191,397.435842 831.274040,385.576135 830.162050,384.914215 823.090967,396.774122"/>
    <poly id="1115616598" type="highway.pedestrian" color="white" fill="1" layer="0.00" shape="831.704441,382.254692 832.816700,382.927717 840.766262,369.913233 839.662237,369.240008 831.704441,382.254692"/>
    <poly id="1115616599" type="highway.pedestrian" color="white" fill="1" layer="0.00" shape="841.410583,391.741410 842.479255,388.915597 857.451409,384.141819 854.875440,368.971361 854.896271,351.126949 852.268913,349.479552 855.774708,343.850327 859.850472,346.440378 858.962350,368.961220 860.815633,385.593590 841.410583,391.741410"/>
    <poly id="1115616601" type="highway.pedestrian" color="white" fill="1" layer="0.00" shape="834.460704,403.842805 838.638122,406.208164 842.013285,402.670921 847.107000,400.003120 852.795540,399.098633 858.471636,400.061064 855.493761,392.788996 836.326211,400.575471 834.460704,403.842805"/>
    <poly id="1115616602" type="highway.pedestrian" color="white" fill="1" layer="0.00" shape="864.778859,429.451796 866.896554,432.511502 874.227556,425.256315 869.910023,419.827756 869.035543,423.526611 865.980901,428.389368 864.778859,429.451796"/>
    <poly id="1115616605" type="highway.pedestrian" color="white" fill="1" layer="0.00" shape="930.145038,463.689421 912.866431,452.841618 914.186007,449.487533 910.225284,447.561313 909.181634,449.719863 908.457900,449.437403 911.066302,443.841053 932.827947,451.302593 930.145038,463.689421"/>
    <poly id="1115616606" type="highway.pedestrian" color="white" fill="1" layer="0.00" shape="907.261321,443.922113 905.301048,448.380576 887.805017,437.404768 891.219914,433.466599 899.242776,438.783185 907.261321,443.922113"/>
    <poly id="1115616618" type="highway.pedestrian" color="white" fill="1" layer="0.00" shape="968.668710,502.188577 963.527334,499.824268 957.354541,509.651234 967.572036,514.748083 968.668710,502.188577"/>
    <poly id="1115616619" type="highway.pedestrian" color="white" fill="1" layer="0.00" shape="974.271913,494.019809 978.795583,494.354702 995.362437,495.553522 1004.401268,496.212434 1000.686147,481.625056 997.233833,473.808885 992.442006,468.525069 985.665938,463.989279 981.226761,461.019082 936.239513,451.308851 935.420397,454.573036 934.645852,457.636147 932.691058,465.383257 962.842703,485.163519 974.405965,492.749935 974.271913,494.019809"/>
    <poly id="1115625867" type="highway.pedestrian" color="white" fill="1" layer="0.00" shape="895.719495,426.002260 906.215358,433.058892 912.505586,436.584186 925.309479,441.973875 934.418177,444.153184 937.025372,431.701528 927.966341,429.532123 925.647000,436.176988 915.469667,431.723645 918.833478,425.675681 917.363619,424.866865 913.493728,431.793729 900.066755,423.474799 901.890074,421.186254 900.546866,420.163269 898.801596,422.272151 895.719495,426.002260"/>
    <poly id="1115625868" type="highway.pedestrian" color="white" fill="1" layer="0.00" shape="903.381643,416.428043 904.793155,417.549370 913.288401,406.988347 911.876619,405.855913 903.381643,416.428043"/>
    <poly id="1115625869" type="highway.pedestrian" color="white" fill="1" layer="0.00" shape="915.810334,400.882999 917.272604,402.058654 923.232315,394.658965 927.923989,395.123089 928.387505,390.445339 925.841356,388.407072 915.810334,400.882999"/>
    <poly id="1115625870" type="highway.pedestrian" color="white" fill="1" layer="0.00" shape="929.122551,403.782683 931.633815,399.277551 933.333796,399.380818 933.050379,404.009763 929.122551,403.782683"/>
    <poly id="1115625871" type="highway.pedestrian" color="white" fill="1" layer="0.00" shape="920.665806,422.398063 919.187442,421.578343 926.421441,408.614626 927.899807,409.434349 920.665806,422.398063"/>
    <poly id="1115625872" type="highway.pedestrian" color="white" fill="1" layer="0.00" shape="929.933487,423.995756 934.955450,409.519008 936.630991,409.633978 936.312749,414.185991 935.115935,414.103869 931.503950,424.535479 929.933487,423.995756"/>
    <poly id="1126421126" type="amenity.parking" color="184,184,179" fill="1" layer="-1.00" shape="870.278338,663.900426 863.688215,659.893570 863.356405,656.401714 862.195869,652.374400 860.570451,649.224993 858.626286,646.183307 856.554663,643.322483 854.493264,640.883621 852.509315,638.920646 850.309638,636.896235 846.803704,634.692376 840.797370,631.315817 833.624607,628.089751 827.219692,625.267292 820.016346,622.819735 812.606743,621.721590 804.827263,622.021267 798.630109,622.671473 793.542171,624.550315 820.638351,597.827616 861.906036,623.071182 869.542602,614.153066 893.171688,628.991210 877.662707,645.255383 884.322750,649.427221 870.278338,663.900426"/>
    <poly id="1126421126#1" type="building.yes;parking" color="255,230,230" fill="1" layer="-1.00" shape="870.278338,663.900426 863.688215,659.893570 863.356405,656.401714 862.195869,652.374400 860.570451,649.224993 858.626286,646.183307 856.554663,643.322483 854.493264,640.883621 852.509315,638.920646 850.309638,636.896235 846.803704,634.692376 840.797370,631.315817 833.624607,628.089751 827.219692,625.267292 820.016346,622.819735 812.606743,621.721590 804.827263,622.021267 798.630109,622.671473 793.542171,624.550315 820.638351,597.827616 861.906036,623.071182 869.542602,614.153066 893.171688,628.991210 877.662707,645.255383 884.322750,649.427221 870.278338,663.900426"/>
    <poly id="1126421127" type="landuse.commercial" color="209,209,204" fill="1" layer="-3.00" shape="954.515866,645.238073 948.923874,652.162189 939.368220,661.115587 931.506738,666.872502 920.760730,673.965929 995.728737,650.895427 963.533794,636.875480 954.515866,645.238073"/>
    <poly id="1126421452" type="landuse.construction" color="194,194,130" fill="0" layer="-3.00" shape="1015.518656,663.393664 1003.195846,652.670127 927.617402,624.345774 884.142069,597.077605 869.542602,614.153066 893.171688,628.991210 877.662707,645.255383 884.322750,649.427221 870.278338,663.900426 872.160553,665.065894 834.037663,679.811552"/>
    <poly id="117739139" type="building.yes" color="255,230,230" fill="1" layer="-1.00" shape="970.097343,285.205132 997.533140,283.318681 998.500452,297.405932 973.088447,300.854440 970.097343,285.205132"/>
    <poly id="117744701" type="building.yes" color="255,230,230" fill="1" layer="-1.00" shape="681.987416,159.368892 677.044674,146.522484 682.745769,144.428711 677.155421,128.664763 667.927587,132.466257 667.249764,131.360509 665.388282,128.339083 660.515400,120.413070 685.609057,110.949132 701.296962,151.978568 681.987416,159.368892"/>
    <poly id="117744709" type="building.yes" color="255,230,230" fill="1" layer="-1.00" shape="654.693380,148.775700 664.517145,137.948824 672.880073,140.956994 680.870330,159.518204 654.693380,148.775700"/>
    <poly id="117744712" type="building.office" color="255,230,230" fill="1" layer="-1.00" shape="622.215351,133.741848 603.335584,125.222416 604.024606,124.072396 610.685546,110.933368 616.902514,114.137984 619.305983,109.268696 614.221456,104.169989 615.222399,102.290201 608.203626,98.305064 612.434110,90.280422 612.049215,87.323180 616.148061,82.023879 639.547901,108.377620 638.203093,110.010198 630.822901,120.677830 623.657492,117.440659 621.852187,121.151021 628.481080,124.012328 622.215351,133.741848"/>
    <poly id="117853077" type="amenity.hospital" color="237,199,199" fill="1" layer="-1.00" shape="243.362909,510.156750"/>
    <poly id="1201503095" type="building.yes" color="255,230,230" fill="1" layer="-1.00" shape="372.671250,444.214923 372.698826,441.958757 372.709231,441.369630 369.089604,441.279816 369.130532,439.912190 364.011803,439.847697 363.774343,457.541893 372.495127,457.652183 372.524053,455.451538 372.671250,444.214923"/>
    <poly id="1201503096" type="building.yes" color="255,230,230" fill="1" layer="-1.00" shape="355.335692,314.084074 362.604243,314.107435 362.624739,307.151565 366.217840,307.164249 366.250949,296.997047 355.453809,296.903879 355.377640,307.672113 355.335692,314.084074"/>
    <poly id="1201503097" type="building.yes" color="255,230,230" fill="1" layer="-1.00" shape="361.753363,335.383106 361.710381,329.884296 375.295513,329.754173 375.369268,335.163349 370.933596,335.404462 361.753363,335.383106"/>
    <poly id="1201503098" type="building.yes" color="255,230,230" fill="1" layer="-1.00" shape="387.543530,336.656379 381.782902,336.629686 381.789004,335.185132 375.369268,335.163349 375.407771,325.895992 387.588153,325.944468 387.580842,327.000173 387.543530,336.656379"/>
    <poly id="1221390816" type="man_made.ventilation_shaft" color="255,230,230" fill="1" layer="-1.00" shape="807.265065,154.164949 807.229914,154.754672 806.996032,155.304768 806.586240,155.736910 806.057382,156.016386 805.465760,156.086278 804.886035,155.966999 804.383823,155.645848 804.018117,155.176948 803.823207,154.615022 803.826761,154.081619 803.995834,153.577536 804.315033,153.147590 804.743988,152.826092 805.259066,152.658058 805.794653,152.656188 806.309300,152.810377 806.745359,153.122021 807.094862,153.602424 807.265065,154.164949"/>
    <poly id="1258299091" type="leisure.garden" color="207,245,201" fill="1" layer="-2.00" shape="819.717251,426.210570 838.752673,438.137768 842.594228,431.744863 839.503890,429.353159 837.489418,426.813165 835.248720,422.078719 834.364481,418.233597 834.518808,414.741072 835.339178,410.510206 830.934563,407.950361 819.717251,426.210570"/>
    <poly id="1258299092" type="leisure.garden" color="207,245,201" fill="1" layer="-2.00" shape="838.638122,406.208164 834.460704,403.842805 836.326211,400.575471 855.493761,392.788996 858.471636,400.061064 852.795540,399.098633 847.107000,400.003120 842.013285,402.670921 838.638122,406.208164"/>
    <poly id="1258299093" type="leisure.garden" color="207,245,201" fill="1" layer="-2.00" shape="843.078412,440.843969 850.826474,445.700508 863.567098,435.214317 860.851453,432.302430 855.802652,434.102493 849.879303,434.157139 847.552963,433.369092 843.078412,440.843969"/>
    <poly id="1258299094" type="leisure.garden" color="207,245,201" fill="1" layer="-2.00" shape="866.896554,432.511502 874.227556,425.256315 869.910023,419.827756 869.035543,423.526611 865.980901,428.389368 864.778859,429.451796 866.896554,432.511502"/>
    <poly id="1258299095" type="highway.pedestrian" color="white" fill="1" layer="0.00" shape="819.717251,426.210570 830.934563,407.950361 835.339178,410.510206 834.518808,414.741072 834.364481,418.233597 835.248720,422.078719 837.489418,426.813165 839.503890,429.353159 842.594228,431.744863 838.752673,438.137768 819.717251,426.210570"/>
    <poly id="1258299096" type="highway.pedestrian" color="white" fill="1" layer="0.00" shape="850.826474,445.700508 863.567098,435.214317 860.851453,432.302430 855.802652,434.102493 849.879303,434.157139 847.552963,433.369092 843.078412,440.843969 850.826474,445.700508"/>
    <poly id="1258299097" type="leisure.garden" color="207,245,201" fill="1" layer="-2.00" shape="905.301048,448.380576 907.261321,443.922113 899.242776,438.783185 891.219914,433.466599 887.805017,437.404768 905.301048,448.380576"/>
    <poly id="1258299098" type="leisure.garden" color="207,245,201" fill="1" layer="-2.00" shape="967.572036,514.748083 957.354541,509.651234 963.527334,499.824268 968.668710,502.188577 967.572036,514.748083"/>
    <poly id="1258299099" type="leisure.garden" color="207,245,201" fill="1" layer="-2.00" shape="930.145038,463.689421 932.827947,451.302593 911.066302,443.841053 908.457900,449.437403 909.181634,449.719863 910.225284,447.561313 914.186007,449.487533 912.866431,452.841618 930.145038,463.689421"/>
    <poly id="1258299101" type="highway.pedestrian" color="white" fill="1" layer="0.00" shape="864.465002,454.247545 871.154724,443.652436 867.717559,439.869166 857.445000,449.851113 864.465002,454.247545"/>
    <poly id="1258299101#1" type="leisure.garden" color="white" fill="1" layer="0.00" shape="864.465002,454.247545 871.154724,443.652436 867.717559,439.869166 857.445000,449.851113 864.465002,454.247545"/>
    <poly id="1258299102" type="highway.pedestrian" color="white" fill="1" layer="0.00" shape="874.387999,440.040871 871.255108,436.572439 878.262450,429.902858 879.669869,431.535376 874.387999,440.040871"/>
    <poly id="1258299102#1" type="leisure.garden" color="white" fill="1" layer="0.00" shape="874.387999,440.040871 871.255108,436.572439 878.262450,429.902858 879.669869,431.535376 874.387999,440.040871"/>
    <poly id="1258299103" type="leisure.garden" color="207,245,201" fill="1" layer="-2.00" shape="895.719495,426.002260 906.215358,433.058892 912.505586,436.584186 925.309479,441.973875 934.418177,444.153184 937.025372,431.701528 927.966341,429.532123 925.647000,436.176988 915.469667,431.723645 913.493728,431.793729 900.066755,423.474799 898.801596,422.272151 895.719495,426.002260"/>
    <poly id="1258299104" type="highway.pedestrian" color="white" fill="1" layer="0.00" shape="891.171022,466.822331 881.593225,461.265658 885.613394,455.101776 894.679098,460.948631 891.171022,466.822331"/>
    <poly id="1258299104#1" type="leisure.garden" color="white" fill="1" layer="0.00" shape="891.171022,466.822331 881.593225,461.265658 885.613394,455.101776 894.679098,460.948631 891.171022,466.822331"/>
    <poly id="1258299105" type="highway.pedestrian" color="white" fill="1" layer="0.00" shape="915.614597,468.663456 919.717681,462.519808 910.260639,456.504630 906.498434,462.773355 915.614597,468.663456"/>
    <poly id="1258299105#1" type="leisure.garden" color="white" fill="1" layer="0.00" shape="915.614597,468.663456 919.717681,462.519808 910.260639,456.504630 906.498434,462.773355 915.614597,468.663456"/>
    <poly id="1258299106" type="highway.pedestrian" color="white" fill="1" layer="0.00" shape="938.248987,482.903661 940.591269,484.691320 934.319464,493.831837 919.098548,484.245256 922.535913,478.173289 935.674958,486.177017 938.248987,482.903661"/>
    <poly id="1258299106#1" type="leisure.garden" color="white" fill="1" layer="0.00" shape="938.248987,482.903661 940.591269,484.691320 934.319464,493.831837 919.098548,484.245256 922.535913,478.173289 935.674958,486.177017 938.248987,482.903661"/>
    <poly id="1261973941" type="highway.pedestrian" color="white" fill="1" layer="0.00" shape="1008.945761,488.558201 1007.597412,481.535507 1003.614428,472.221117 998.804862,466.204416 994.916084,462.143141 995.012728,461.029725 1012.229364,462.857281 1012.039151,466.572881 1010.620533,466.518339 1009.930173,472.379315 1011.400353,472.521495 1009.850833,488.502957 1008.945761,488.558201"/>
    <poly id="1261973941#1" type="leisure.garden" color="white" fill="1" layer="0.00" shape="1008.945761,488.558201 1007.597412,481.535507 1003.614428,472.221117 998.804862,466.204416 994.916084,462.143141 995.012728,461.029725 1012.229364,462.857281 1012.039151,466.572881 1010.620533,466.518339 1009.930173,472.379315 1011.400353,472.521495 1009.850833,488.502957 1008.945761,488.558201"/>
    <poly id="1261973942" type="leisure.garden" color="207,245,201" fill="1" layer="-2.00" shape="974.300085,510.496398 977.918139,510.864330 978.685579,503.423753 975.067252,503.044716 974.300085,510.496398"/>
    <poly id="1272766501" type="landuse.grass" color="194,194,130" fill="1" layer="-3.00" shape="504.785127,77.971358 506.983206,72.451478 452.257912,48.725456 444.810560,45.761967 434.045148,41.901324 423.696206,39.241659 401.268540,32.597765 400.259995,32.466714 399.661605,32.936794 398.038608,38.720510 398.889720,39.155377 399.754732,39.823233 399.686655,41.091519 406.125111,42.890613 444.581473,53.633981 504.785127,77.971358"/>
    <poly id="1272766502" type="landuse.grass" color="194,194,130" fill="1" layer="-3.00" shape="389.524961,38.338468 389.608414,37.703125 390.312250,37.163817 391.051044,37.045871 392.107655,37.120199 393.719302,31.547862 393.173056,30.772265 380.883806,27.959805 371.521627,25.554011 358.480212,21.970997 335.144196,23.393610 389.524961,38.338468"/>
    <poly id="1272766503" type="landuse.grass" color="194,194,130" fill="1" layer="-3.00" shape="331.393538,22.329236 332.111574,20.000736 331.393538,22.329236"/>
    <poly id="1272766533" type="landuse.grass" color="194,194,130" fill="1" layer="-3.00" shape="543.508018,89.186543 576.288348,45.692157 581.654124,46.417474 546.071398,94.301954 541.138283,92.388420 543.508018,89.186543"/>
    <poly id="1273202599" type="leisure.garden" color="207,245,201" fill="1" layer="-2.00" shape="984.692034,452.013231 982.785917,451.903833 982.887937,451.012501 974.907365,450.161328 974.915838,449.150043 965.371362,448.370081 965.481884,447.489654 956.091455,446.605978 956.101538,445.661318 954.771083,445.504655 955.068830,440.786478 975.871753,443.027084 976.607507,435.298396 986.246351,436.231639 984.692034,452.013231"/>
    <poly id="127555669" type="amenity.townhall" color="white" fill="1" layer="0.00" shape="977.665863,403.118208 979.146683,383.960722 994.906461,385.167986 993.425598,404.325467 977.665863,403.118208"/>
    <poly id="127555669#1" type="building.government" color="white" fill="1" layer="0.00" shape="977.665863,403.118208 979.146683,383.960722 994.906461,385.167986 993.425598,404.325467 977.665863,403.118208"/>
    <poly id="1279170041" type="amenity.parking" color="184,184,179" fill="1" layer="-1.00" shape="937.366328,279.742384 909.644957,286.169182 903.510424,286.695543 934.560829,267.677369 937.366328,279.742384"/>
    <poly id="1279170173" type="amenity.parking" color="184,184,179" fill="1" layer="-1.00" shape="929.301316,587.728313 938.878213,572.163482 928.666012,565.922140 930.156396,563.497224 898.825665,544.356769 887.750204,562.346781 929.301316,587.728313"/>
    <poly id="1281239342" type="building.yes" color="white" fill="1" layer="0.00" shape="1122.230611,327.466049 1122.536288,325.114285 1124.804603,323.503904 1127.602688,324.036194 1128.606889,326.034058 1128.602790,328.589631 1126.394273,330.287450 1123.596190,329.755160 1122.230611,327.466049"/>
    <poly id="1281239342#1" type="highway.pedestrian" color="white" fill="1" layer="0.00" shape="1122.230611,327.466049 1122.536288,325.114285 1124.804603,323.503904 1127.602688,324.036194 1128.606889,326.034058 1128.602790,328.589631 1126.394273,330.287450 1123.596190,329.755160 1122.230611,327.466049"/>
    <poly id="1281239344" type="building.yes" color="255,230,230" fill="1" layer="-1.00" shape="1237.900463,244.015807 1240.294706,231.591671 1253.465371,234.084304 1249.242013,246.519319 1237.900463,244.015807"/>
    <poly id="1281777219" type="building.hotel" color="white" fill="1" layer="0.00" shape="1133.976953,454.344466 1142.621868,442.124612 1147.492105,448.951023 1152.072663,455.384456 1153.984877,458.471434 1133.976953,454.344466"/>
    <poly id="1281786354" type="amenity.parking" color="184,184,179" fill="1" layer="-1.00" shape="795.104771,599.613162 782.970202,611.629208 771.932527,601.252666 781.341267,589.302683 795.104771,599.613162"/>
    <poly id="1281786355" type="amenity.parking" color="184,184,179" fill="1" layer="-1.00" shape="795.104771,599.613162 802.216716,591.829877 791.882379,583.613969 790.301889,585.718889 786.629372,582.763562 781.341267,589.302683 795.104771,599.613162"/>
    <poly id="1281825674" type="building.yes" color="255,230,230" fill="1" layer="-1.00" shape="1222.642543,639.816185 1219.659307,636.732868 1217.783058,634.789412 1212.895805,639.518555 1211.234292,637.936563 1203.116036,646.032628 1209.196190,653.152026 1222.642543,639.816185"/>
    <poly id="1281825675" type="building.yes" color="255,230,230" fill="1" layer="-1.00" shape="1183.580702,652.904876 1186.912951,655.768633 1174.292349,669.173461 1171.088637,666.173272 1183.580702,652.904876"/>