<?xml version="1.0" encoding="UTF-8"?>

<!-- generated on 2024-10-31 13:08:46.482131 by osmWebWizard.py v1_21_0+0000-d7b3b481c43
<configuration>
    <net-file value="C:\Windows\system32\2024-10-31-13-07-49\osm.net.xml.gz"/>
    <output-trip-file value="C:\Windows\system32\2024-10-31-13-07-49\osm.passenger.trips.xml"/>
    <route-file value="C:\Windows\system32\2024-10-31-13-07-49\osm.passenger.rou.xml"/>
    <prefix value="veh"/>
    <trip-attributes value="departLane=&quot;best&quot;"/>
    <fringe-start-attributes value="departSpeed=&quot;max&quot;"/>
    <vehicle-class value="passenger"/>
    <lanes value="True"/>
    <fringe-factor value="5"/>
    <allow-fringe.min-length value="1000.0"/>
    <via-edge-types value="highway.motorway,highway.motorway_link,highway.trunk_link,highway.primary_link,highway.secondary_link,highway.tertiary_link"/>
    <min-distance value="300.0"/>
    <min-distance.fringe value="10.0"/>
    <remove-loops value="True"/>
    <validate value="True"/>
    <insertion-density value="12.0"/>
</configuration>
-->

<!-- generated on 2024-10-31 13:08:45 by Eclipse SUMO duarouter Version 1.21.0
<duarouterConfiguration xmlns:xsi="http://www.w3.org/2001/XMLSchema-instance" xsi:noNamespaceSchemaLocation="http://sumo.dlr.de/xsd/duarouterConfiguration.xsd">

    <input>
        <net-file value="C:\Windows\system32\2024-10-31-13-07-49\osm.net.xml.gz"/>
        <route-files value="C:\Windows\system32\2024-10-31-13-07-49\osm.passenger.trips.xml"/>
    </input>

    <output>
        <output-file value="C:\Windows\system32\2024-10-31-13-07-49\osm.passenger.trips.xml.tmp"/>
        <alternatives-output value="NUL"/>
        <write-trips value="true"/>
    </output>

    <processing>
        <remove-loops value="true"/>
    </processing>

    <time>
        <begin value="0.0"/>
        <end value="3600.0"/>
    </time>

    <report>
        <no-warnings value="true"/>
        <ignore-errors value="true"/>
        <no-step-log value="true"/>
    </report>

</duarouterConfiguration>
-->

<routes xmlns:xsi="http://www.w3.org/2001/XMLSchema-instance" xsi:noNamespaceSchemaLocation="http://sumo.dlr.de/xsd/routes_file.xsd">
    <vType id="veh_passenger" vClass="passenger"/>
    <trip id="veh0" type="veh_passenger" depart="0.00" departLane="best" from="823316159#0" to="-242633873#0"/>
    <trip id="veh1" type="veh_passenger" depart="3.22" departLane="best" from="1317279602" to="-1323824615#1"/>
    <trip id="veh2" type="veh_passenger" depart="6.45" departLane="best" from="8640354#1" to="8639327#1"/>
    <trip id="veh3" type="veh_passenger" depart="9.67" departLane="best" from="8650333#4" to="-8639232"/>
    <trip id="veh4" type="veh_passenger" depart="12.90" departLane="best" from="426487624#1" to="292807008#1"/>
    <trip id="veh5" type="veh_passenger" depart="16.12" departLane="best" from="1098934122#2" to="591278027#1"/>
    <trip id="veh6" type="veh_passenger" depart="19.34" departLane="best" from="-1323824616#1" to="1195901265#0"/>
    <trip id="veh7" type="veh_passenger" depart="22.57" departLane="best" from="825263837#0" to="749812082#2"/>
    <trip id="veh9" type="veh_passenger" depart="29.01" departLane="best" from="8647038#1" to="426488942"/>
    <trip id="veh10" type="veh_passenger" depart="32.24" departLane="best" from="8646690#1" to="8640148#2"/>
    <trip id="veh11" type="veh_passenger" depart="35.46" departLane="best" departSpeed="max" from="89641548" to="420495585#2"/>
    <trip id="veh12" type="veh_passenger" depart="38.69" departLane="best" from="-851480300#1" to="8644869"/>
    <trip id="veh13" type="veh_passenger" depart="41.91" departLane="best" from="8648179#2" to="825263831"/>
    <trip id="veh14" type="veh_passenger" depart="45.13" departLane="best" from="8646770#1" to="8643649#1"/>
    <trip id="veh15" type="veh_passenger" depart="48.36" departLane="best" from="579272296#4" to="931384763"/>
    <trip id="veh16" type="veh_passenger" depart="51.58" departLane="best" from="404948105#3" to="801839131#0"/>
    <trip id="veh17" type="veh_passenger" depart="54.81" departLane="best" from="8647456#15" to="825494584#1"/>
    <trip id="veh18" type="veh_passenger" depart="58.03" departLane="best" from="8648550#1" to="817406992#1"/>
    <trip id="veh19" type="veh_passenger" depart="61.25" departLane="best" from="8637586#6" to="-426491165#0"/>
    <trip id="veh20" type="veh_passenger" depart="64.48" departLane="best" from="1121209367#1" to="-289468264#1"/>
    <trip id="veh21" type="veh_passenger" depart="67.70" departLane="best" departSpeed="max" from="-798341511#6" to="139069159"/>
    <trip id="veh22" type="veh_passenger" depart="70.92" departLane="best" departSpeed="max" from="-8638109#1" to="289462373#0"/>
    <trip id="veh23" type="veh_passenger" depart="74.15" departLane="best" from="822078648#1" to="426456738#1"/>
    <trip id="veh24" type="veh_passenger" depart="77.37" departLane="best" from="380662074#0" to="-1285819768"/>
    <trip id="veh25" type="veh_passenger" depart="80.60" departLane="best" from="1285819769#1" to="8652528#2"/>
    <trip id="veh26" type="veh_passenger" depart="83.82" departLane="best" from="-993825359#1" to="8642489#1"/>
    <trip id="veh27" type="veh_passenger" depart="87.04" departLane="best" from="-944109700#2" to="426488102#2"/>
    <trip id="veh28" type="veh_passenger" depart="90.27" departLane="best" from="943460422#0" to="832677772"/>
    <trip id="veh29" type="veh_passenger" depart="93.49" departLane="best" from="591908556#0" to="8639568#1"/>
    <trip id="veh31" type="veh_passenger" depart="99.94" departLane="best" from="1121209369" to="292807009#1"/>
    <trip id="veh33" type="veh_passenger" depart="106.39" departLane="best" from="1089126783#1" to="8865426#10"/>
    <trip id="veh34" type="veh_passenger" depart="109.61" departLane="best" from="8649126#2" to="380662069#1"/>
    <trip id="veh35" type="veh_passenger" depart="112.83" departLane="best" from="825263838#3" to="426489347#0"/>
    <trip id="veh36" type="veh_passenger" depart="116.06" departLane="best" from="8651355#4" to="48982055#3"/>
    <trip id="veh37" type="veh_passenger" depart="119.28" departLane="best" from="1284186043#3" to="183524213#2"/>
    <trip id="veh38" type="veh_passenger" depart="122.51" departLane="best" from="591908557#2" to="242544492#1"/>
    <trip id="veh39" type="veh_passenger" depart="125.73" departLane="best" from="591217320#1" to="8651156#1"/>
    <trip id="veh40" type="veh_passenger" depart="128.95" departLane="best" from="-990899889#1" to="591908556#1"/>
    <trip id="veh41" type="veh_passenger" depart="132.18" departLane="best" departSpeed="max" from="-426497580#1" to="426488104#1"/>
    <trip id="veh42" type="veh_passenger" depart="135.40" departLane="best" from="985552043#0" to="653924644#2"/>
    <trip id="veh43" type="veh_passenger" depart="138.63" departLane="best" departSpeed="max" from="932735298" to="-48983695#0"/>
    <trip id="veh44" type="veh_passenger" depart="141.85" departLane="best" from="-1198318807#1" to="8642027"/>
    <trip id="veh45" type="veh_passenger" depart="145.07" departLane="best" from="830619438#2" to="747090064#2"/>
    <trip id="veh46" type="veh_passenger" depart="148.30" departLane="best" from="-1285819768" to="832677772"/>
    <trip id="veh47" type="veh_passenger" depart="151.52" departLane="best" from="-8641571#4" to="485269334#5"/>
    <trip id="veh48" type="veh_passenger" depart="154.74" departLane="best" from="-426491387#1" to="89641250"/>
    <trip id="veh49" type="veh_passenger" depart="157.97" departLane="best" from="48983695#1" to="1121981969#1"/>
    <trip id="veh50" type="veh_passenger" depart="161.19" departLane="best" from="8651355#2" to="8649630#9"/>
    <trip id="veh51" type="veh_passenger" depart="164.42" departLane="best" from="290048940#1" to="186553876#0"/>
    <trip id="veh52" type="veh_passenger" depart="167.64" departLane="best" departSpeed="max" from="814346830#0" to="1089092083"/>
    <trip id="veh53" type="veh_passenger" depart="170.86" departLane="best" from="8644223#0" to="747090068#2"/>
    <trip id="veh54" type="veh_passenger" depart="174.09" departLane="best" from="8645388#2" to="671208885#0"/>
    <trip id="veh55" type="veh_passenger" depart="177.31" departLane="best" from="103553904#1" to="380662085#5"/>
    <trip id="veh56" type="veh_passenger" depart="180.54" departLane="best" from="1285819769#1" to="8651845#0"/>
    <trip id="veh57" type="veh_passenger" depart="183.76" departLane="best" from="8649126#6" to="8647941#2"/>
    <trip id="veh58" type="veh_passenger" depart="186.98" departLane="best" from="242536052#1" to="-48983695#0"/>
    <trip id="veh59" type="veh_passenger" depart="190.21" departLane="best" from="8649126#4" to="8865428#0"/>
    <trip id="veh60" type="veh_passenger" depart="193.43" departLane="best" departSpeed="max" from="-825494574#1" to="591136306#2"/>
    <trip id="veh61" type="veh_passenger" depart="196.65" departLane="best" from="533466403#0" to="8646058"/>
    <trip id="veh62" type="veh_passenger" depart="199.88" departLane="best" from="8644576#2" to="1000832623#0"/>
    <trip id="veh63" type="veh_passenger" depart="203.10" departLane="best" from="426831020" to="798341511#6"/>
    <trip id="veh64" type="veh_passenger" depart="206.33" departLane="best" from="-1285819244#0" to="104210747#2"/>
    <trip id="veh65" type="veh_passenger" depart="209.55" departLane="best" from="426487624#3" to="1299607131#1"/>
    <trip id="veh66" type="veh_passenger" depart="212.77" departLane="best" from="591136306#2" to="8643791#0"/>
    <trip id="veh67" type="veh_passenger" depart="216.00" departLane="best" from="104210747#8" to="-380662067#2"/>
    <trip id="veh68" type="veh_passenger" depart="219.22" departLane="best" from="970425331" to="85890979"/>
    <trip id="veh69" type="veh_passenger" depart="222.45" departLane="best" from="426489162#0" to="620770779#0"/>
    <trip id="veh70" type="veh_passenger" depart="225.67" departLane="best" from="-8646223#1" to="1323824616#1"/>
    <trip id="veh72" type="veh_passenger" depart="232.12" departLane="best" from="-573357374#6" to="830619409#2"/>
    <trip id="veh73" type="veh_passenger" depart="235.34" departLane="best" from="1121209369" to="8651205"/>
    <trip id="veh74" type="veh_passenger" depart="238.56" departLane="best" departSpeed="max" from="8648527#0" to="798341511#0"/>
    <trip id="veh76" type="veh_passenger" depart="245.01" departLane="best" from="1096256457" to="1013953519#1"/>
    <trip id="veh77" type="veh_passenger" depart="248.24" departLane="best" from="879039476#0" to="816366950#0"/>
    <trip id="veh78" type="veh_passenger" depart="251.46" departLane="best" from="426659560#0" to="851480300#1"/>
    <trip id="veh79" type="veh_passenger" depart="254.68" departLane="best" from="-8646816#1" to="1188182968"/>
    <trip id="veh80" type="veh_passenger" depart="257.91" departLane="best" from="-8636143" to="485269334#0"/>
    <trip id="veh81" type="veh_passenger" depart="261.13" departLane="best" from="426487624#3" to="533600032#1"/>
    <trip id="veh82" type="veh_passenger" depart="264.35" departLane="best" from="8640122#1" to="8639214"/>
    <trip id="veh83" type="veh_passenger" depart="267.58" departLane="best" departSpeed="max" from="943443719" to="8646223#4"/>
    <trip id="veh84" type="veh_passenger" depart="270.80" departLane="best" from="242652627#0" to="187589422#1"/>
    <trip id="veh85" type="veh_passenger" depart="274.03" departLane="best" departSpeed="max" from="1031513328" to="48981989"/>
    <trip id="veh86" type="veh_passenger" depart="277.25" departLane="best" from="426487624#1" to="289462373#4"/>
    <trip id="veh87" type="veh_passenger" depart="280.47" departLane="best" from="1188182972#1" to="8651512#2"/>
    <trip id="veh88" type="veh_passenger" depart="283.70" departLane="best" from="426489346#2" to="8649126#0"/>
    <trip id="veh89" type="veh_passenger" depart="286.92" departLane="best" from="591235979#1" to="426497570#1"/>
    <trip id="veh90" type="veh_passenger" depart="290.15" departLane="best" from="993825359#2" to="8648049#2"/>
    <trip id="veh91" type="veh_passenger" depart="293.37" departLane="best" departSpeed="max" from="932735298" to="8651566#3"/>
    <trip id="veh92" type="veh_passenger" depart="296.59" departLane="best" from="8648229#1" to="1098934123#0"/>
    <trip id="veh93" type="veh_passenger" depart="299.82" departLane="best" from="485292830" to="1312615597#0"/>
    <trip id="veh94" type="veh_passenger" depart="303.04" departLane="best" from="426456594#3" to="-48983695#0"/>
    <trip id="veh95" type="veh_passenger" depart="306.26" departLane="best" from="404948105#3" to="944109700#2"/>
    <trip id="veh96" type="veh_passenger" depart="309.49" departLane="best" from="-1285819244#0" to="8646653#0"/>
    <trip id="veh97" type="veh_passenger" depart="312.71" departLane="best" departSpeed="max" from="426492007#0" to="290084391#1"/>
    <trip id="veh98" type="veh_passenger" depart="315.94" departLane="best" from="916811161#1" to="985552044#2"/>
    <trip id="veh99" type="veh_passenger" depart="319.16" departLane="best" from="591677205" to="8641806#3"/>
    <trip id="veh100" type="veh_passenger" depart="322.38" departLane="best" departSpeed="max" from="-8651156#2" to="187589422#1"/>
    <trip id="veh101" type="veh_passenger" depart="325.61" departLane="best" departSpeed="max" from="932735298" to="817406992#2"/>
    <trip id="veh102" type="veh_passenger" depart="328.83" departLane="best" from="591136310#0" to="8645084#1"/>
    <trip id="veh103" type="veh_passenger" depart="332.06" departLane="best" from="-426492390#1" to="822078648#1"/>
    <trip id="veh104" type="veh_passenger" depart="335.28" departLane="best" departSpeed="max" from="48983697" to="8648766#0"/>
    <trip id="veh106" type="veh_passenger" depart="341.73" departLane="best" departSpeed="max" from="-798341511#6" to="1154673772#0"/>
    <trip id="veh107" type="veh_passenger" depart="344.95" departLane="best" from="-798341511#4" to="-8639232"/>
    <trip id="veh108" type="veh_passenger" depart="348.17" departLane="best" from="8650333#0" to="183524213#1"/>
    <trip id="veh109" type="veh_passenger" depart="351.40" departLane="best" from="-798341511#1" to="-825494585#2"/>
    <trip id="veh110" type="veh_passenger" depart="354.62" departLane="best" from="426484910#2" to="822078648#0"/>
    <trip id="veh111" type="veh_passenger" depart="357.85" departLane="best" from="579261235#0" to="8652409#6"/>
    <trip id="veh112" type="veh_passenger" depart="361.07" departLane="best" from="1089085521#1" to="8641806#1"/>
    <trip id="veh113" type="veh_passenger" depart="364.29" departLane="best" from="1154673770#1" to="426490574#0"/>
    <trip id="veh114" type="veh_passenger" depart="367.52" departLane="best" departSpeed="max" from="828869387#0" to="292807008#1"/>
    <trip id="veh116" type="veh_passenger" depart="373.97" departLane="best" from="591677205" to="48982055#1"/>
    <trip id="veh117" type="veh_passenger" depart="377.19" departLane="best" from="993825359#1" to="985552044#2"/>
    <trip id="veh118" type="veh_passenger" depart="380.41" departLane="best" from="63104587#3" to="1312615597#0"/>
    <trip id="veh119" type="veh_passenger" depart="383.64" departLane="best" from="-1285819244#0" to="8652409#2"/>
    <trip id="veh120" type="veh_passenger" depart="386.86" departLane="best" departSpeed="max" from="8649527#0" to="8650197#3"/>
    <trip id="veh121" type="veh_passenger" depart="390.08" departLane="best" from="380662073#1" to="1096242208#0"/>
    <trip id="veh122" type="veh_passenger" depart="393.31" departLane="best" from="8647491#3" to="8640571#1"/>
    <trip id="veh123" type="veh_passenger" depart="396.53" departLane="best" from="814346831#0" to="947114313#0"/>
    <trip id="veh124" type="veh_passenger" depart="399.76" departLane="best" from="825263838#1" to="1120509015#1"/>
    <trip id="veh125" type="veh_passenger" depart="402.98" departLane="best" from="8647158#2" to="292807008#1"/>
    <trip id="veh126" type="veh_passenger" depart="406.20" departLane="best" from="825494637#0" to="879039476#1"/>
    <trip id="veh127" type="veh_passenger" depart="409.43" departLane="best" departSpeed="max" from="-8647494#1" to="-8650900#3"/>
    <trip id="veh128" type="veh_passenger" depart="412.65" departLane="best" from="-8640516#0" to="801839131#2"/>
    <trip id="veh129" type="veh_passenger" depart="415.88" departLane="best" from="8648219#1" to="825263831"/>
    <trip id="veh131" type="veh_passenger" depart="422.32" departLane="best" from="822078647#1" to="242544492#2"/>
    <trip id="veh132" type="veh_passenger" depart="425.55" departLane="best" from="485292836#1" to="8651205"/>
    <trip id="veh133" type="veh_passenger" depart="428.77" departLane="best" from="8648049#3" to="-8641571#7"/>
    <trip id="veh134" type="veh_passenger" depart="431.99" departLane="best" from="426487624#3" to="289424188#6"/>
    <trip id="veh135" type="veh_passenger" depart="435.22" departLane="best" from="-1089085521#0" to="8646455#1"/>
    <trip id="veh136" type="veh_passenger" depart="438.44" departLane="best" from="822392246" to="242544492#0"/>
    <trip id="veh137" type="veh_passenger" depart="441.67" departLane="best" from="-426497570#2" to="801839131#0"/>
    <trip id="veh138" type="veh_passenger" depart="444.89" departLane="best" from="426488102#2" to="-1121696256#2"/>
    <trip id="veh139" type="veh_passenger" depart="448.11" departLane="best" from="8651073#2" to="761030414#0"/>
    <trip id="veh141" type="veh_passenger" depart="454.56" departLane="best" from="8650900#2" to="-993825360#2"/>
    <trip id="veh142" type="veh_passenger" depart="457.79" departLane="best" from="242536052#11" to="8651161#0"/>
    <trip id="veh143" type="veh_passenger" depart="461.01" departLane="best" from="8646520#2" to="-48983695#0"/>
    <trip id="veh144" type="veh_passenger" depart="464.23" departLane="best" from="8650602#4" to="-1285819768"/>
    <trip id="veh145" type="veh_passenger" depart="467.46" departLane="best" from="1188182971#1" to="-8646460#5"/>
    <trip id="veh146" type="veh_passenger" depart="470.68" departLane="best" from="-8645774#1" to="8650349#3"/>
    <trip id="veh147" type="veh_passenger" depart="473.90" departLane="best" from="426456618#1" to="825494585#3"/>
    <trip id="veh148" type="veh_passenger" depart="477.13" departLane="best" departSpeed="max" from="-8651156#2" to="8651870#2"/>
    <trip id="veh149" type="veh_passenger" depart="480.35" departLane="best" from="8648609#0" to="943142505#0"/>
    <trip id="veh150" type="veh_passenger" depart="483.58" departLane="best" from="8647039#1" to="8650333#4"/>
    <trip id="veh151" type="veh_passenger" depart="486.80" departLane="best" from="1323824615#1" to="8644437#5"/>
    <trip id="veh152" type="veh_passenger" depart="490.02" departLane="best" from="289424188#8" to="8652368#1"/>
    <trip id="veh153" type="veh_passenger" depart="493.25" departLane="best" from="8646607#3" to="8649126#3"/>
    <trip id="veh154" type="veh_passenger" depart="496.47" departLane="best" from="8647039#1" to="242631723#2"/>
    <trip id="veh156" type="veh_passenger" depart="502.92" departLane="best" from="1106843295#0" to="8647491#2"/>
    <trip id="veh157" type="veh_passenger" depart="506.14" departLane="best" departSpeed="max" from="426492009#0" to="-292967031#0"/>
    <trip id="veh158" type="veh_passenger" depart="509.37" departLane="best" from="8646506#2" to="1329471324"/>
    <trip id="veh159" type="veh_passenger" depart="512.59" departLane="best" from="-1323781936#3" to="1188182970#1"/>
    <trip id="veh160" type="veh_passenger" depart="515.81" departLane="best" departSpeed="max" from="244444288" to="8649126#4"/>
    <trip id="veh161" type="veh_passenger" depart="519.04" departLane="best" from="923656101#3" to="289462373#5"/>
    <trip id="veh162" type="veh_passenger" depart="522.26" departLane="best" from="823316157" to="426490741"/>
    <trip id="veh163" type="veh_passenger" depart="525.49" departLane="best" departSpeed="max" from="943443719" to="747090064#0"/>
    <trip id="veh164" type="veh_passenger" depart="528.71" departLane="best" from="8865425#2" to="8650900#2"/>
    <trip id="veh165" type="veh_passenger" depart="531.93" departLane="best" departSpeed="max" from="932735298" to="1121981969#1"/>
    <trip id="veh166" type="veh_passenger" depart="535.16" departLane="best" from="92028174#0" to="242624801"/>
    <trip id="veh167" type="veh_passenger" depart="538.38" departLane="best" departSpeed="max" from="-8640516#1" to="485269334#5"/>
    <trip id="veh168" type="veh_passenger" depart="541.61" departLane="best" from="8640122#1" to="380662069#0"/>
    <trip id="veh169" type="veh_passenger" depart="544.83" departLane="best" departSpeed="max" from="814346830#0" to="591908557#0"/>
    <trip id="veh170" type="veh_passenger" depart="548.05" departLane="best" departSpeed="max" from="404955582#0" to="817406992#0"/>
    <trip id="veh171" type="veh_passenger" depart="551.28" departLane="best" from="1198318807#0" to="8641166#1"/>
    <trip id="veh172" type="veh_passenger" depart="554.50" departLane="best" from="104205451#0" to="8651566#1"/>
    <trip id="veh173" type="veh_passenger" depart="557.72" departLane="best" from="591136306#0" to="8641806#5"/>
    <trip id="veh174" type="veh_passenger" depart="560.95" departLane="best" from="8641115#2" to="8638390#2"/>
    <trip id="veh175" type="veh_passenger" depart="564.17" departLane="best" from="380662069#0" to="-678127463#3"/>
    <trip id="veh176" type="veh_passenger" depart="567.40" departLane="best" from="825494637#1" to="404948105#6"/>
    <trip id="veh177" type="veh_passenger" depart="570.62" departLane="best" from="242544492#2" to="8648550#1"/>
    <trip id="veh178" type="veh_passenger" depart="573.84" departLane="best" from="8639350#7" to="292807008#2"/>
    <trip id="veh179" type="veh_passenger" depart="577.07" departLane="best" from="242536052#5" to="426492389#0"/>
    <trip id="veh180" type="veh_passenger" depart="580.29" departLane="best" from="426456601#1" to="289654498"/>
    <trip id="veh181" type="veh_passenger" depart="583.52" departLane="best" departSpeed="max" from="-8646916#1" to="426659495"/>
    <trip id="veh182" type="veh_passenger" depart="586.74" departLane="best" from="8865426#10" to="8639327#1"/>
    <trip id="veh183" type="veh_passenger" depart="589.96" departLane="best" from="8650950#1" to="825263840"/>
    <trip id="veh184" type="veh_passenger" depart="593.19" departLane="best" departSpeed="max" from="199586485" to="798341511#2"/>
    <trip id="veh185" type="veh_passenger" depart="596.41" departLane="best" from="103553904#1" to="289468262#0"/>
    <trip id="veh186" type="veh_passenger" depart="599.63" departLane="best" from="426488104#0" to="818607102#0"/>
    <trip id="veh187" type="veh_passenger" depart="602.86" departLane="best" from="825263838#3" to="533466405"/>
    <trip id="veh188" type="veh_passenger" depart="606.08" departLane="best" from="426489346#1" to="1312615597#0"/>
    <trip id="veh189" type="veh_passenger" depart="609.31" departLane="best" from="426659560#0" to="8651205"/>
    <trip id="veh190" type="veh_passenger" depart="612.53" departLane="best" from="8646520#1" to="1106843295#1"/>
    <trip id="veh191" type="veh_passenger" depart="615.75" departLane="best" departSpeed="max" from="-825494574#1" to="591908557#3"/>
    <trip id="veh192" type="veh_passenger" depart="618.98" departLane="best" departSpeed="max" from="822078647#0" to="420495585#0"/>
    <trip id="veh193" type="veh_passenger" depart="622.20" departLane="best" from="8647158#4" to="8645084#1"/>
    <trip id="veh194" type="veh_passenger" depart="625.43" departLane="best" departSpeed="max" from="828869387#0" to="-1323824616#1"/>
    <trip id="veh195" type="veh_passenger" depart="628.65" departLane="best" from="104210747#2" to="140065785#3"/>
    <trip id="veh196" type="veh_passenger" depart="631.87" departLane="best" from="1188182969#1" to="579261235#1"/>
    <trip id="veh197" type="veh_passenger" depart="635.10" departLane="best" from="8648270#0" to="806431512"/>
    <trip id="veh198" type="veh_passenger" depart="638.32" departLane="best" from="426456661#1" to="830619409#0"/>
    <trip id="veh199" type="veh_passenger" depart="641.54" departLane="best" from="-103680391#1" to="8640148#1"/>
    <trip id="veh200" type="veh_passenger" depart="644.77" departLane="best" from="485292840#1" to="172093621#3"/>
    <trip id="veh201" type="veh_passenger" depart="647.99" departLane="best" from="825263839#0" to="1098934121#0"/>
    <trip id="veh202" type="veh_passenger" depart="651.22" departLane="best" from="8641806#1" to="8646389#4"/>
    <trip id="veh203" type="veh_passenger" depart="654.44" departLane="best" from="8639923#7" to="426831020"/>
    <trip id="veh204" type="veh_passenger" depart="657.66" departLane="best" from="1003706978#1" to="89641252#3"/>
    <trip id="veh205" type="veh_passenger" depart="660.89" departLane="best" from="555541342#0" to="426497570#1"/>
    <trip id="veh206" type="veh_passenger" depart="664.11" departLane="best" from="1188182971#1" to="8648550#2"/>
    <trip id="veh207" type="veh_passenger" depart="667.34" departLane="best" departSpeed="max" from="426492007#0" to="8647158#4"/>
    <trip id="veh208" type="veh_passenger" depart="670.56" departLane="best" from="826634235" to="947114313#1"/>
    <trip id="veh209" type="veh_passenger" depart="673.78" departLane="best" from="-798341511#5" to="8866326#1"/>
    <trip id="veh210" type="veh_passenger" depart="677.01" departLane="best" from="8650333#2" to="825263839#0"/>
    <trip id="veh211" type="veh_passenger" depart="680.23" departLane="best" from="8639350#4" to="591278027#0"/>
    <trip id="veh212" type="veh_passenger" depart="683.45" departLane="best" from="8647456#3" to="798341511#2"/>
    <trip id="veh213" type="veh_passenger" depart="686.68" departLane="best" from="8650435#2" to="8645083#1"/>
    <trip id="veh214" type="veh_passenger" depart="689.90" departLane="best" from="426831020" to="89641252#3"/>
    <trip id="veh215" type="veh_passenger" depart="693.13" departLane="best" from="1188182970#1" to="830619438#4"/>
    <trip id="veh216" type="veh_passenger" depart="696.35" departLane="best" from="8644576#2" to="63104562#2"/>
    <trip id="veh217" type="veh_passenger" depart="699.57" departLane="best" from="817406992#2" to="289424188#1"/>
    <trip id="veh218" type="veh_passenger" depart="702.80" departLane="best" from="-798341511#1" to="289468262#0"/>
    <trip id="veh219" type="veh_passenger" depart="706.02" departLane="best" from="-1312615596" to="380662074#0"/>
    <trip id="veh220" type="veh_passenger" depart="709.25" departLane="best" from="591136306#2" to="103553904#1"/>
    <trip id="veh221" type="veh_passenger" depart="712.47" departLane="best" from="1121696256#3" to="8640122#3"/>
    <trip id="veh222" type="veh_passenger" depart="715.69" departLane="best" from="8638014#1" to="-573357374#6"/>
    <trip id="veh223" type="veh_passenger" depart="718.92" departLane="best" from="426456625#1" to="749812082#1"/>
    <trip id="veh224" type="veh_passenger" depart="722.14" departLane="best" from="426464725" to="1285819244#1"/>
    <trip id="veh225" type="veh_passenger" depart="725.36" departLane="best" from="426484920" to="8651205"/>
    <trip id="veh226" type="veh_passenger" depart="728.59" departLane="best" from="734528310" to="8640148#0"/>
    <trip id="veh227" type="veh_passenger" depart="731.81" departLane="best" from="8648507#1" to="8646223#4"/>
    <trip id="veh229" type="veh_passenger" depart="738.26" departLane="best" departSpeed="max" from="292809511#0" to="8645216#4"/>
    <trip id="veh230" type="veh_passenger" depart="741.48" departLane="best" departSpeed="max" from="8648357#0" to="89641249#1"/>
    <trip id="veh231" type="veh_passenger" depart="744.71" departLane="best" from="591217318#1" to="825263831"/>
    <trip id="veh232" type="veh_passenger" depart="747.93" departLane="best" from="1098934123#0" to="1317061159"/>
    <trip id="veh233" type="veh_passenger" depart="751.16" departLane="best" from="426488940#5" to="-289654498"/>
    <trip id="veh234" type="veh_passenger" depart="754.38" departLane="best" from="289462374#6" to="8639350#1"/>
    <trip id="veh235" type="veh_passenger" depart="757.60" departLane="best" from="426456611#0" to="1098934122#6"/>
    <trip id="veh236" type="veh_passenger" depart="760.83" departLane="best" from="-1212692908#0" to="1000832622#1"/>
    <trip id="veh237" type="veh_passenger" depart="764.05" departLane="best" from="816366950#2" to="-289468264#1"/>
    <trip id="veh238" type="veh_passenger" depart="767.27" departLane="best" from="420774507#1" to="825263837#0"/>
    <trip id="veh239" type="veh_passenger" depart="770.50" departLane="best" from="1323824617#0" to="840928388#0"/>
    <trip id="veh240" type="veh_passenger" depart="773.72" departLane="best" departSpeed="max" from="-8648025#1" to="51811528#1"/>
    <trip id="veh241" type="veh_passenger" depart="776.95" departLane="best" departSpeed="max" from="-426456738#2" to="426488102#2"/>
    <trip id="veh242" type="veh_passenger" depart="780.17" departLane="best" from="8643916#1" to="426488102#2"/>
    <trip id="veh243" type="veh_passenger" depart="783.39" departLane="best" from="8641806#2" to="8647941#2"/>
    <trip id="veh244" type="veh_passenger" depart="786.62" departLane="best" from="1195901265#0" to="85890979"/>
    <trip id="veh245" type="veh_passenger" depart="789.84" departLane="best" from="-1285819769#1" to="747090068#2"/>
    <trip id="veh246" type="veh_passenger" depart="793.06" departLane="best" from="993825360#1" to="426456606#0"/>
    <trip id="veh247" type="veh_passenger" depart="796.29" departLane="best" from="825263837#0" to="8646607#3"/>
    <trip id="veh248" type="veh_passenger" depart="799.51" departLane="best" from="825263837#1" to="8645216#5"/>
    <trip id="veh249" type="veh_passenger" depart="802.74" departLane="best" from="89641249#0" to="1195901265#0"/>