<?xml version="1.0" encoding="UTF-8"?>

<!-- generated on 2024-10-31 13:08:38 by Eclipse SUMO polyconvert Version 1.21.0
<polyconvertConfiguration xmlns:xsi="http://www.w3.org/2001/XMLSchema-instance" xsi:noNamespaceSchemaLocation="http://sumo.dlr.de/xsd/polyconvertConfiguration.xsd">

    <input>
        <net-file value="osm.net.xml.gz"/>
        <osm-files value="osm_bbox.osm.xml.gz"/>
        <osm.keep-full-type value="true"/>
        <osm.merge-relations value="1"/>
        <type-file value="${SUMO_HOME}\data\typemap\osmPolyconvert.typ.xml"/>
    </input>

    <output>
        <output-file value="osm.poly.xml.gz"/>
    </output>

    <report>
        <verbose value="true"/>
    </report>

</polyconvertConfiguration>
-->

<additional xmlns:xsi="http://www.w3.org/2001/XMLSchema-instance" xsi:noNamespaceSchemaLocation="http://sumo.dlr.de/xsd/additional_file.xsd">
    <location netOffset="-329037.67,-4690593.46" convBoundary="-2.34,0.00,2513.93,1402.16" origBoundary="-71.075713,42.349368,-71.045314,42.361498" projParameter="+proj=utm +zone=19 +ellps=WGS84 +datum=WGS84 +units=m +no_defs"/>

    <poly id="1004546315" type="building.yes" color="255,230,230" fill="1" layer="-1.00" shape="322.527855,993.408557 323.761096,998.700597 305.455124,1002.946766 304.364428,997.417926 322.527855,993.408557"/>
    <poly id="1004592153" type="building.yes" color="255,230,230" fill="1" layer="-1.00" shape="647.351174,882.145125 653.535893,883.672394 650.404250,895.181627 644.327146,893.673964 647.351174,882.145125"/>
    <poly id="1012808089" type="highway.pedestrian" color="white" fill="1" layer="0.00" shape="2003.489276,984.266974 2004.333701,982.379992 2004.969364,976.964841 2004.964566,974.376160 2003.664942,970.718769 2002.345136,973.394975 2001.274229,977.165135 2001.478510,980.848963 2002.355144,983.027726 2003.489276,984.266974"/>
    <poly id="1012808090" type="highway.pedestrian" color="white" fill="1" layer="0.00" shape="1999.840634,993.221393 2000.708229,987.856196 2000.672681,984.334957 1999.768173,981.001352 1998.684793,979.816433 1997.228348,983.318131 1996.719955,987.519143 1997.234708,990.751048 1998.275178,992.548092 1999.840634,993.221393"/>
    <poly id="1012808091" type="highway.pedestrian" color="white" fill="1" layer="0.00" shape="1993.811552,990.611460 1994.789936,987.787943 1994.921973,984.040444 1994.089391,981.638404 1993.343673,980.445336 1992.172504,982.451313 1991.834383,986.537108 1992.227601,989.171968 1993.811552,990.611460"/>
    <poly id="1012808092" type="leisure.garden" color="207,245,201" fill="1" layer="-2.00" shape="1999.840634,993.221393 2000.708229,987.856196 2000.672681,984.334957 1999.768173,981.001352 1998.684793,979.816433 1997.228348,983.318131 1996.719955,987.519143 1997.234708,990.751048 1998.275178,992.548092 1999.840634,993.221393"/>
    <poly id="1012808093" type="leisure.garden" color="207,245,201" fill="1" layer="-2.00" shape="2003.489276,984.266974 2004.333701,982.379992 2004.969364,976.964841 2004.964566,974.376160 2003.664942,970.718769 2002.345136,973.394975 2001.274229,977.165135 2001.478510,980.848963 2002.355144,983.027726 2003.489276,984.266974"/>
    <poly id="1012808094" type="leisure.garden" color="207,245,201" fill="1" layer="-2.00" shape="1993.343673,980.445336 1994.089391,981.638404 1994.921973,984.040444 1994.789936,987.787943 1993.811552,990.611460 1992.227601,989.171968 1991.834383,986.537108 1992.172504,982.451313 1993.343673,980.445336"/>
    <poly id="1012808095" type="leisure.garden" color="207,245,201" fill="1" layer="-2.00" shape="1995.452514,979.050037 1996.671758,976.987346 1997.623538,972.720078 1997.751362,969.139342 1997.646979,965.497546 1995.138702,965.024774 1993.820288,970.489738 1993.210631,973.226580 1993.542105,975.351837 1994.185926,977.102901 1995.452514,979.050037"/>
    <poly id="1012808096" type="leisure.garden" color="207,245,201" fill="1" layer="-2.00" shape="2000.324839,972.654877 2002.148165,970.355393 2003.649206,966.652627 2000.221677,965.990937 1999.496839,968.052804 1999.660991,970.415425 2000.324839,972.654877"/>
    <poly id="1024475422" type="historic.maritime" color="128,255,128" fill="1" layer="-1.00" shape="2207.295784,1222.319654 2160.211509,1213.777541 2160.900817,1209.216638 2162.877219,1196.180558 2164.776405,1172.424508 2185.350361,1176.106029 2208.169273,1180.622342 2211.257415,1181.225645 2239.350085,1186.770432 2244.239491,1187.919199 2248.888462,1189.007100 2258.766625,1191.324476 2258.922257,1189.576345 2259.746827,1180.367923 2285.945603,1184.603036 2285.614197,1186.922047 2289.089927,1187.538265 2289.384647,1185.064588 2318.664052,1188.225625 2336.063941,1189.795248 2334.965213,1199.599128 2332.596839,1199.456191 2332.270348,1202.663936 2334.093045,1202.731133 2333.476100,1208.590221 2333.300006,1213.594276 2330.923835,1227.151014 2335.640730,1227.981788 2335.103561,1232.705664 2332.756427,1232.417777 2332.403360,1235.548388 2334.736965,1235.958818 2333.465794,1255.022063 2313.952770,1251.925649 2314.374502,1249.593352 2311.236989,1248.991196 2310.718574,1251.414708 2298.488687,1249.298370 2280.814309,1246.591060 2281.243196,1244.214146 2278.043273,1243.757947 2277.597113,1246.101945 2268.614132,1244.340729 2269.296255,1240.846640 2269.631788,1239.383052 2242.718390,1231.132051 2217.083596,1224.650259 2207.295784,1222.319654"/>
    <poly id="1024481363" type="building.yes" color="255,230,230" fill="1" layer="-1.00" shape="2172.698334,1204.332311 2168.475254,1203.478626 2169.057033,1200.609145 2173.279847,1201.451726 2172.698334,1204.332311"/>
    <poly id="1024565663" type="natural.reef" color="140,196,107" fill="1" layer="-4.00" shape="2164.776405,1172.424508 2163.052264,1169.610634 2169.066673,1170.254459 2178.056011,1171.248763 2180.614083,1171.398184 2208.543770,1178.724494 2208.169273,1180.622342 2164.776405,1172.424508"/>
    <poly id="1024565664" type="natural.reef" color="140,196,107" fill="1" layer="-4.00" shape="2211.257415,1181.225645 2211.639612,1179.305390 2228.565352,1183.763851 2228.739116,1182.426378 2244.688383,1186.030671 2244.239491,1187.919199 2211.257415,1181.225645"/>
    <poly id="1024565665" type="natural.reef" color="140,196,107" fill="1" layer="-4.00" shape="2248.888462,1189.007100 2249.321955,1187.163386 2258.922257,1189.576345 2258.766625,1191.324476 2248.888462,1189.007100"/>
    <poly id="1024565666" type="man_made.pier" color="255,230,230" fill="1" layer="-1.00" shape="2208.169273,1180.622342 2208.543770,1178.724494 2209.747409,1172.595700 2209.864452,1171.981789 2212.960833,1172.584894 2211.639612,1179.305390 2211.257415,1181.225645 2208.169273,1180.622342"/>
    <poly id="1024565671" type="man_made.pier" color="255,230,230" fill="1" layer="-1.00" shape="2244.239491,1187.919199 2244.688383,1186.030671 2244.926757,1184.980519 2249.583162,1186.034909 2249.321955,1187.163386 2248.888462,1189.007100 2244.239491,1187.919199"/>
    <poly id="1024565673" type="man_made.pier" color="255,230,230" fill="1" layer="-1.00" shape="2134.803110,1160.658932 2135.220305,1158.482281 2135.418290,1157.466431 2142.032695,1158.729074 2141.834709,1159.744923 2141.417512,1161.921573 2134.803110,1160.658932"/>
    <poly id="1024565674" type="man_made.pier" color="255,230,230" fill="1" layer="-1.00" shape="2089.454922,1152.030953 2090.020403,1148.828535 2094.182932,1149.561418 2094.066970,1150.219748 2093.617450,1152.763835 2089.454922,1152.030953"/>
    <poly id="1024565681" type="leisure.garden" color="207,245,201" fill="1" layer="-2.00" shape="2157.210430,1180.906663 2158.064652,1176.008462 2161.879393,1176.671996 2161.016934,1181.570395 2157.210430,1180.906663"/>
    <poly id="1024565682" type="leisure.garden" color="207,245,201" fill="1" layer="-2.00" shape="2167.351241,1182.495383 2168.216114,1177.696923 2207.226915,1184.600472 2206.242169,1189.212934 2177.836197,1183.320290 2176.662143,1184.181903 2167.351241,1182.495383"/>
    <poly id="1024565683" type="leisure.garden" color="207,245,201" fill="1" layer="-2.00" shape="2209.484702,1190.068060 2210.421376,1185.512311 2243.176197,1191.666913 2242.481686,1195.672395 2209.484702,1190.068060"/>
    <poly id="1024565684" type="natural.shingle" color="140,196,107" fill="1" layer="-4.00" shape="2247.913818,1196.774750 2248.460548,1193.817237 2258.806990,1195.734451 2258.259990,1198.680860 2247.913818,1196.774750"/>
    <poly id="1024565685" type="natural.shingle" color="140,196,107" fill="1" layer="-4.00" shape="2263.486706,1199.465967 2263.805441,1197.647241 2270.540634,1198.795984 2270.222165,1200.625814 2263.486706,1199.465967"/>
    <poly id="1024772952" type="leisure.garden" color="207,245,201" fill="1" layer="-2.00" shape="2147.204668,1244.367908 2151.097204,1221.608181 2159.743941,1223.432912 2154.379796,1245.650366 2147.204668,1244.367908"/>
    <poly id="1024772953" type="leisure.garden" color="207,245,201" fill="1" layer="-2.00" shape="2152.046620,1218.607614 2156.140059,1194.609758 2162.877219,1196.180558 2160.900817,1209.216638 2160.211509,1213.777541 2158.928180,1219.674944 2152.046620,1218.607614"/>
    <poly id="1024772954" type="leisure.outdoor_seating" color="207,245,201" fill="1" layer="-2.00" shape="2191.840539,1203.659642 2193.201777,1196.549302 2175.652219,1193.217039 2173.695138,1193.386449 2171.965964,1194.805874 2170.834827,1196.421981 2170.201831,1198.192737 2170.020045,1199.197084 2173.597821,1199.944113 2191.840539,1203.659642"/>
    <poly id="1024772956" type="leisure.outdoor_seating" color="207,245,201" fill="1" layer="-2.00" shape="2195.597656,1215.946382 2193.186345,1227.692983 2168.931873,1222.755805 2171.342879,1210.998089 2195.597656,1215.946382"/>
    <poly id="1024772958" type="building.yes" color="255,230,230" fill="1" layer="-1.00" shape="2146.577104,1253.538269 2147.259701,1250.066375 2153.601448,1251.302268 2152.927083,1254.773962 2146.577104,1253.538269"/>
    <poly id="1024772959" type="amenity.parking" color="184,184,179" fill="1" layer="-1.00" shape="2171.342879,1210.998089 2160.900817,1209.216638 2160.211509,1213.777541 2158.928180,1219.674944 2159.743941,1223.432912 2154.379796,1245.650366 2153.877970,1249.784542 2153.601448,1251.302268 2152.927083,1254.773962 2152.581263,1256.493352 2159.243913,1257.710399 2164.736616,1256.200210 2190.423803,1249.136592 2197.102664,1248.975557 2203.961769,1218.011306 2201.875210,1217.594963 2195.597656,1215.946382 2193.186345,1227.692983 2168.931873,1222.755805 2171.342879,1210.998089"/>
    <poly id="1024772963" type="man_made.pier" color="255,230,230" fill="0" layer="-1.00" shape="2253.587657,1286.879115 2253.827633,1285.895589 2256.278629,1275.792439 2256.750616,1273.836690 2258.812192,1265.353979 2259.779538,1261.386365 2261.218877,1255.463002 2263.085347,1247.773855 2263.621884,1245.760998"/>
    <poly id="1024772964" type="man_made.pier" color="255,230,230" fill="1" layer="-1.00" shape="2218.180480,1233.234612 2215.725146,1232.560498 2215.227277,1232.416951 2215.309299,1232.059431 2216.222728,1228.248660 2216.672144,1226.382338 2233.072043,1230.909034 2245.183193,1234.250300 2246.850544,1234.710093 2252.756940,1236.345443 2254.482205,1236.814952 2267.447997,1240.402313 2269.296255,1240.846640 2268.614132,1244.340729 2267.894129,1246.946875 2263.621884,1245.760998 2218.180480,1233.234612"/>
    <poly id="1024772965" type="building.yes" color="255,230,230" fill="1" layer="-1.00" shape="2231.866479,1235.249048 2233.072043,1230.909034 2245.183193,1234.250300 2243.985590,1238.579009 2231.866479,1235.249048"/>
    <poly id="1024772966" type="building.yes" color="255,230,230" fill="1" layer="-1.00" shape="2246.850544,1234.710093 2245.917891,1238.065784 2251.832253,1239.689830 2252.756940,1236.345443 2246.850544,1234.710093"/>
    <poly id="1024772967" type="building.yes" color="255,230,230" fill="1" layer="-1.00" shape="2254.482205,1236.814952 2253.487949,1240.349898 2266.454270,1243.959466 2267.447997,1240.402313 2254.482205,1236.814952"/>
    <poly id="1024772968" type="man_made.pier" color="255,230,230" fill="0" layer="-1.00" shape="2215.725146,1232.560498 2211.126467,1253.381719"/>
    <poly id="1024772970" type="man_made.pier" color="255,230,230" fill="1" layer="-1.00" shape="2154.080673,1274.589870 2152.871616,1279.807731 2151.698517,1284.124757 2112.712617,1274.476595 2115.094725,1264.941693 2154.080673,1274.589870"/>
    <poly id="103382982" type="leisure.park" color="207,245,201" fill="1" layer="-2.00" shape="1260.740798,280.511106 1258.814016,291.801901 1243.106098,288.404976 1244.336247,284.075291 1245.264119,284.275015 1246.759184,279.994463 1250.207864,278.110927 1260.740798,280.511106"/>
    <poly id="103383443" type="leisure.park" color="207,245,201" fill="1" layer="-2.00" shape="721.778320,65.211994 738.403583,72.407608 742.361553,48.078723 739.548776,45.947160 721.778320,65.211994"/>
    <poly id="103383592" type="leisure.park" color="207,245,201" fill="1" layer="-2.00" shape="614.574245,300.790848 616.282866,302.593675 619.226410,302.988716 621.972265,302.033048 658.323386,309.081904 659.679192,276.049798 655.939533,276.129647 654.253752,278.315039 627.789649,282.003155 626.078468,281.111475 624.599795,279.614154 620.612633,279.344497 618.726070,280.390368 617.848826,281.933893 614.184809,298.333720 614.574245,300.790848"/>
    <poly id="103547823" type="building.yes" color="255,230,230" fill="1" layer="-1.00" shape="1707.298838,981.066978 1700.444325,984.199282 1709.170405,993.376872 1712.189683,991.126166 1715.470233,993.546766 1717.269831,991.292219 1707.298838,981.066978"/>
    <poly id="103548393" type="building.yes" color="255,230,230" fill="1" layer="-1.00" shape="1723.816396,1066.087010 1759.762346,1071.940040 1767.437556,1050.944106 1740.198906,1040.547344 1736.613453,1051.078118 1750.561518,1056.751849 1748.990805,1060.634134 1723.746129,1053.978000 1723.816396,1066.087010"/>
    <poly id="103548394" type="leisure.park" color="207,245,201" fill="1" layer="-2.00" shape="1712.381583,969.411136 1693.955014,975.512042 1698.423309,959.915622 1712.381583,969.411136"/>
    <poly id="103548396" type="building.yes" color="255,230,230" fill="1" layer="-1.00" shape="1688.923372,1000.866211 1700.073079,1004.629805 1701.373615,1000.820706 1705.237290,1002.138349 1705.668147,1000.872417 1706.283504,999.057598 1708.127928,999.679647 1713.413591,1001.529561 1715.272874,1002.084588 1715.125257,1002.454812 1723.506791,1005.563172 1723.976049,1004.862961 1731.111674,1007.223700 1735.507790,1008.750703 1735.081395,1010.883162 1734.795286,1012.001153 1740.290044,1013.979360 1752.204087,1018.002326 1747.895455,1030.661614 1744.015602,1029.355450 1741.591571,1036.458257 1740.198906,1040.547344 1736.613453,1051.078118 1734.985050,1050.528616 1732.625471,1049.730132 1728.579302,1048.361333 1727.109660,1052.674499 1721.817146,1050.880296 1720.661811,1054.219230 1719.961503,1056.269428 1719.730544,1056.941656 1719.262197,1068.585928 1719.082147,1073.067910 1714.345580,1094.948378 1666.663053,1083.546285 1663.694578,1078.696017 1678.915302,1030.340599 1679.331024,1029.130585 1681.138842,1023.809262 1681.546597,1022.610552 1682.801186,1023.035753 1686.331882,1012.628492 1685.077291,1012.203289 1685.500714,1010.970868 1687.438882,1005.246409 1687.854338,1004.025292 1688.923372,1000.866211"/>
    <poly id="103556360" type="building.yes" color="255,230,230" fill="1" layer="-1.00" shape="1689.594036,1130.490174 1692.146257,1121.195425 1702.897704,1123.490916 1702.528084,1125.244240 1707.852061,1126.637679 1706.190249,1133.566523 1700.140659,1131.812867 1699.801209,1133.109921 1689.594036,1130.490174"/>
    <poly id="103616989" type="building.retail" color="255,230,230" fill="1" layer="-1.00" shape="1601.619998,1294.968503 1591.919919,1291.503330 1589.359260,1290.565324 1584.414405,1290.873863 1595.057254,1260.083968 1613.200700,1267.178072 1604.432627,1287.589570 1601.619998,1294.968503"/>
    <poly id="103680109" type="building.commercial" color="255,230,230" fill="1" layer="-1.00" shape="1437.461897,695.483400 1449.336680,690.707117 1449.822649,688.995404 1431.921313,663.040819 1421.317801,667.908562 1437.461897,695.483400"/>
    <poly id="104205249" type="building.yes" color="255,230,230" fill="1" layer="-1.00" shape="801.633422,222.644342 850.857093,215.415113 871.978787,212.313178 865.006027,182.438965 833.108343,189.435968 832.476596,187.518038 821.893611,187.141870 820.071851,186.108389 803.789659,185.215198 803.649366,185.207497 803.178098,193.963152 802.209226,212.086196 801.633422,222.644342"/>
    <poly id="104205249#1" type="tourism.hotel" color="207,245,201" fill="1" layer="-2.00" shape="801.633422,222.644342 850.857093,215.415113 871.978787,212.313178 865.006027,182.438965 833.108343,189.435968 832.476596,187.518038 821.893611,187.141870 820.071851,186.108389 803.789659,185.215198 803.649366,185.207497 803.178098,193.963152 802.209226,212.086196 801.633422,222.644342"/>
    <poly id="1051864106" type="amenity.parking" color="184,184,179" fill="1" layer="-1.00" shape="576.631914,1298.655908 573.186569,1298.617558 570.799672,1298.731217 566.287235,1303.263182 563.978030,1305.552678 560.253055,1308.921060 559.991818,1318.160533 560.059645,1324.669838 564.089684,1324.693947 564.080947,1326.027461 568.935327,1326.064837 568.940029,1325.242520 576.110152,1325.290193 576.099647,1326.212649 596.655860,1323.379007 576.057713,1323.135966 576.132874,1316.745400 574.822108,1316.721754 575.065596,1304.382789 576.572121,1304.323895 576.631914,1298.655908"/>
    <poly id="1074327790" type="landuse.construction" color="194,194,130" fill="1" layer="-3.00" shape="669.816706,1369.964145 740.125913,1370.487174 669.816706,1369.964145"/>
    <poly id="1074969869" type="landuse.grass" color="194,194,130" fill="1" layer="-3.00" shape="696.089032,699.275347 695.422593,701.013733 695.483087,703.501086 696.375823,704.968224 741.548366,765.468119 743.872388,766.489361 745.853608,766.630073 748.546906,765.553503 750.651534,764.669021 752.138470,763.121797 755.636498,729.726516 758.346025,726.605166 760.037658,724.664089 759.923309,723.011358 759.145764,720.519216 759.528562,716.265578 760.950317,711.697799 762.474273,708.283061 765.012883,704.910321 766.529814,702.562393 765.712582,699.115686 764.442504,695.346663 763.211999,689.476735 762.520881,684.438115 762.392267,676.097019 763.869678,669.072398 765.955234,659.266400 767.174763,653.159137 768.563605,647.236642 768.331926,645.842311 766.481376,644.976212 763.509233,643.737390 760.599867,643.385908 758.341413,644.385234 754.200929,647.630257 746.214850,654.724238 736.623287,663.235007 707.800670,688.824119 698.924924,696.606444 696.089032,699.275347"/>
    <poly id="1074969870" type="landuse.grass" color="194,194,130" fill="1" layer="-3.00" shape="771.671302,648.627722 772.256340,647.946851 773.060239,647.793979 774.109594,648.246235 799.985325,663.127957 814.679041,671.270602 815.894870,671.452159 817.986272,672.734628 819.767940,674.157955 821.013184,675.549876 837.480298,683.760576 841.067543,685.217808 850.895515,688.467789 857.819660,691.932780 868.437547,697.507972 876.992774,702.644416 896.278848,712.920036 898.574234,714.119798 898.819373,716.069344 898.321257,717.614736 895.545165,718.337711 872.813753,726.011978 846.803628,735.088178 843.212981,736.542060 839.653273,736.895222 836.262345,736.733186 831.628613,735.279168 820.491721,731.405490 807.944171,727.132792 803.142353,723.849593 800.354967,721.395189 799.368019,719.441453 798.310364,713.900642 795.690700,708.175583 791.774321,703.348688 787.283822,700.669026 782.485196,699.552371 777.222507,699.346977 775.079650,699.676838 772.867676,698.519532 770.179240,695.729408 767.466506,691.939903 766.309843,688.090347 765.815445,683.346937 766.293452,677.246589 769.948259,658.091580 771.671302,648.627722"/>
    <poly id="1074969871" type="landuse.grass" color="194,194,130" fill="1" layer="-3.00" shape="580.872947,793.076167 579.047771,791.220636 579.155466,788.873629 580.509902,786.962933 583.996252,785.966995 593.013747,783.003162 601.551003,780.284355 608.845967,776.295822 628.046989,759.017928 658.805823,732.081385 672.156171,719.890272 681.802937,711.622501 683.490782,711.559226 684.263757,712.507067 684.291986,714.684102 684.775380,777.248507 684.836644,796.368746 684.578651,800.330475 681.404996,801.985407 679.141194,801.407154 680.702080,797.480398 672.372025,794.149779 669.225962,802.359432 671.763848,803.364337 669.601901,809.683433 667.988367,813.478143 666.823874,814.728661 664.608824,815.138091 662.070268,814.444308 638.998182,808.772435 598.864362,797.549304 580.872947,793.076167"/>
    <poly id="1074969872" type="landuse.grass" color="194,194,130" fill="1" layer="-3.00" shape="688.415066,819.147787 688.399243,814.092746 688.601999,806.843557 689.402763,804.868575 692.641226,803.167627 705.694467,797.739178 743.077909,781.263847 744.017887,781.285435 744.481123,781.696383 744.492193,782.151657 744.346644,782.944064 743.756760,783.425062 743.374125,783.956574 729.578105,797.136143 720.672915,805.396930 711.344474,813.534692 702.966691,821.116028 700.971314,822.764516 698.979851,823.557376 697.047387,823.726595 695.308803,823.735548 693.029888,823.213213 691.190850,822.480185 689.522468,821.309684 688.415066,819.147787"/>
    <poly id="1074969873" type="landuse.grass" color="194,194,130" fill="1" layer="-3.00" shape="908.985604,710.178105 909.025514,687.733311 909.113093,684.553494 909.376001,683.502692 910.359221,682.589945 911.492396,683.440174 915.395155,689.745200 926.109239,705.051204 927.992510,707.605391 927.779556,708.677200 926.765426,709.335147 922.757162,710.221368 918.575133,711.078479 912.294933,712.408768 910.298041,712.301721 909.315007,711.525622 908.985604,710.178105"/>
    <poly id="1074969874" type="landuse.grass" color="194,194,130" fill="1" layer="-3.00" shape="916.640679,718.291934 916.619911,717.436907 917.176058,716.923412 924.671138,715.396958 930.400457,714.457827 931.787759,714.235250 932.278538,714.423324 932.926196,714.963135 943.306181,730.088393 945.397620,733.070850 945.260013,733.851948 944.461122,733.871349 916.640679,718.291934"/>
    <poly id="1074969875" type="landuse.grass" color="194,194,130" fill="1" layer="-3.00" shape="649.693364,636.972177 650.642270,636.682434 652.245347,637.198977 656.223803,638.135503 663.166315,639.299921 670.519142,640.054377 680.877474,641.046840 692.666722,641.237871 706.935711,640.379754 715.928867,639.116640 724.986969,638.151951 727.064897,638.879181 726.304603,641.842035 724.676411,646.392619 719.757552,660.667413 715.723081,671.320800 713.458161,676.797959 707.491474,682.209589 701.018887,688.166848 694.727907,693.119723 691.979907,694.319862 689.397163,694.182683 687.186116,692.725388 685.175159,690.007704 661.067038,656.328326 652.905516,645.027160 649.597934,640.163306 649.170857,638.529293 649.693364,636.972177"/>
    <poly id="1074969876" type="landuse.grass" color="194,194,130" fill="1" layer="-3.00" shape="720.094008,668.403473 722.856345,660.336511 725.066325,655.649561 728.314992,654.703922 731.925636,656.104977 735.423548,654.564407 736.698534,651.077942 735.205383,647.625451 731.816030,646.174570 728.350114,647.336595 731.067650,637.426332 732.355860,637.195014 734.870168,637.567200 743.940819,638.813283 749.326147,639.993425 751.492235,641.296282 751.362339,642.732735 750.764743,643.913900 748.459707,645.369904 729.812997,661.745088 722.654212,668.630098 720.957579,670.026875 719.671941,670.024805 720.094008,668.403473"/>
    <poly id="1074969877" type="landuse.grass" color="194,194,130" fill="1" layer="-3.00" shape="710.160002,820.063330 716.867660,813.611479 733.723068,798.146434 746.905581,785.492888 748.644583,784.483965 750.499016,785.172190 753.713318,786.882881 773.640746,808.286720 785.463211,821.043418 785.804386,821.857325 784.595192,822.286709 713.674031,821.222282 710.338628,820.970073 710.160002,820.063330"/>
    <poly id="1074969878" type="landuse.grass" color="194,194,130" fill="1" layer="-3.00" shape="706.397699,826.654661 705.525369,826.364773 705.224420,825.849884 705.232924,825.183027 705.405742,824.834389 705.806600,824.713531 706.875916,824.631971 785.875504,825.799937 787.875206,825.684661 790.091871,826.019656 791.279715,827.424077 818.475697,856.984461 722.690855,831.447179 706.397699,826.654661"/>
    <poly id="1074969879" type="landuse.grass" color="194,194,130" fill="1" layer="-3.00" shape="794.292042,825.573123 824.552516,858.481170 834.192735,861.135695 836.713064,859.385602 862.374318,825.118495 794.292042,825.573123"/>
    <poly id="1074969880" type="landuse.grass" color="194,194,130" fill="1" layer="-3.00" shape="841.148570,857.433417 840.176578,859.145881 839.545634,860.650063 839.819554,862.087812 840.657980,862.678532 842.335383,863.204421 882.292720,874.322085 887.388905,875.820451 891.584162,876.529618 895.029593,875.545939 897.072952,872.818594 897.329566,869.134682 898.051873,853.073127 899.199180,827.368179 899.150894,825.380517 898.595870,824.582911 897.445687,824.388636 895.679161,824.264889 867.603836,824.980319 865.677974,825.760426 864.225194,827.017914 841.148570,857.433417"/>
    <poly id="1074969881" type="landuse.grass" color="194,194,130" fill="1" layer="-3.00" shape="906.716247,858.640268 904.934067,858.550231 904.361369,857.364176 904.380732,855.108211 906.124530,825.122225 906.235804,824.275101 906.858908,823.804421 908.747623,823.869650 930.102610,822.984283 908.908940,855.953742 906.716247,858.640268"/>
    <poly id="1074969882" type="landuse.grass" color="194,194,130" fill="1" layer="-3.00" shape="868.770433,821.440958 876.058749,810.730829 876.836318,809.834184 877.630075,809.603793 878.785657,810.020150 881.342945,811.146876 897.026726,819.354507 897.897825,819.933329 897.627912,820.695421 896.867766,821.291650 869.978397,821.978259 868.906922,821.970960 868.770433,821.440958"/>
    <poly id="1074969883" type="landuse.grass" color="194,194,130" fill="1" layer="-3.00" shape="908.729864,868.257756 907.738419,869.848464 907.485501,871.310123 907.505571,873.154030 908.354096,874.500047 909.524628,875.871575 911.017578,876.946389 912.957852,877.099252 915.192619,876.144992 987.661588,850.707916 982.299394,831.805312 938.171704,824.399369 936.964265,824.562025 936.006974,825.863017 908.729864,868.257756"/>
    <poly id="1074969884" type="landuse.grass" color="194,194,130" fill="1" layer="-3.00" shape="989.623085,857.504543 1007.210772,908.842750 1009.001321,915.387984 1008.555849,917.065419 1007.428330,917.803884 1005.312154,917.533047 996.120647,913.667433 972.043674,902.896813 950.238171,893.704395 928.809759,887.147255 925.562855,886.126150 923.374990,885.279317 922.139906,884.642669 921.292050,883.663291 921.076732,882.601883 921.448046,881.604002 921.991773,880.579712 923.497328,879.798718 925.583706,879.181390 989.623085,857.504543"/>
    <poly id="1074969885" type="landuse.grass" color="194,194,130" fill="1" layer="-3.00" shape="992.912865,856.558025 1009.182412,907.572695 1011.131058,907.392057 1023.101781,853.636288 1024.122000,849.156092 1023.791424,847.419721 1022.977990,846.839484 1021.894121,846.321367 1020.269891,846.627455 992.912865,856.558025"/>
    <poly id="1074969886" type="landuse.grass" color="194,194,130" fill="1" layer="-3.00" shape="984.843592,832.054639 990.595072,849.681161 1016.278180,840.724526 1015.245843,837.916334 984.843592,832.054639"/>
    <poly id="1074969887" type="landuse.grass" color="194,194,130" fill="1" layer="-3.00" shape="964.596732,780.836603 965.817391,781.218061 981.013912,828.414398 941.362456,821.410845 940.534552,821.253179 939.718536,820.906341 939.201729,819.985585 939.525397,818.722204 964.596732,780.836603"/>
    <poly id="1074969888" type="landuse.grass" color="194,194,130" fill="1" layer="-3.00" shape="1033.486250,840.784566 1032.088550,841.596249 1030.860779,843.637106 1030.450395,845.402574 1021.080614,889.528787 1015.233619,915.825552 1015.322512,917.790006 1015.719783,919.558089 1016.648873,921.168821 1017.797782,922.329785 1032.441344,929.118548 1036.731995,930.025479 1039.372468,929.150296 1040.643140,927.519498 1041.525923,925.864783 1042.047351,922.563330 1050.115612,879.813143 1056.789115,843.763301 1058.372854,834.658455 1058.691875,832.184116 1058.055858,831.444018 1056.319825,831.897251 1053.715491,832.904878 1038.661696,838.758994 1033.486250,840.784566"/>
    <poly id="1074969889" type="landuse.grass" color="194,194,130" fill="1" layer="-3.00" shape="899.386825,758.765498 900.744680,758.688069 901.288684,757.674882 902.037695,723.713175 902.050984,721.546246 901.552526,720.702822 900.263806,720.234141 897.868189,721.014537 847.017702,738.471774 846.215561,739.035695 846.269950,740.256563 847.540168,740.981232 899.386825,758.765498"/>
    <poly id="1074969890" type="landuse.grass" color="194,194,130" fill="1" layer="-3.00" shape="907.860245,759.859629 907.944601,760.957549 908.752228,762.315671 910.326230,762.655205 912.093185,762.456733 915.405985,760.420763 940.515928,743.122463 943.866689,740.952255 943.661102,739.612841 942.510659,738.729695 911.214817,721.545864 910.032772,720.719044 908.970182,721.078179 908.944772,722.067658 908.859800,728.747316 907.860245,759.859629"/>
    <poly id="1074969891" type="landuse.grass" color="194,194,130" fill="1" layer="-3.00" shape="959.090326,747.515694 958.293594,747.623928 958.239964,748.469652 958.901492,749.920213 963.932219,764.330978 964.725373,766.111667 965.523158,766.725610 966.294371,766.584664 967.418430,765.024079 969.709518,760.957447 971.687348,757.565070 972.051274,755.922946 971.387298,755.050204 967.823771,752.870131 961.126329,748.555112 959.090326,747.515694"/>